 
data_CsV3Sb5_130K_1x1x1Parent
 
_audit_creation_method            'SHELXL-2018/3'
_shelx_SHELXL_version_number      '2018/3'
_chemical_name_systematic         ?
_chemical_name_common             ?
_chemical_melting_point           ?
_chemical_formula_moiety          ?
_chemical_formula_sum
 'Cs Sb5 V3' 
_chemical_formula_weight          894.48

loop_
 _atom_type_symbol
 _atom_type_description
 _atom_type_scat_dispersion_real
 _atom_type_scat_dispersion_imag
 _atom_type_scat_source
 'Cs'  'Cs'  -1.3477   0.8653
 'International Tables Vol C Tables 4.2.6.8 and 6.1.1.4'
 'Sb'  'Sb'  -2.4499   0.6279
 'International Tables Vol C Tables 4.2.6.8 and 6.1.1.4'
 'V'  'V'   0.1536   0.2019
 'International Tables Vol C Tables 4.2.6.8 and 6.1.1.4'
 
_space_group_crystal_system       hexagonal
_space_group_IT_number            191
_space_group_name_H-M_alt         'P 6/m m m'
_space_group_name_Hall            '-P 6 2'
 
_shelx_space_group_comment
;
The symmetry employed for this shelxl refinement is uniquely defined
by the following loop, which should always be used as a source of
symmetry information in preference to the above space-group names.
They are only intended as comments.
;
 
loop_
 _space_group_symop_operation_xyz
 'x, y, z'
 '-y, x-y, z'
 '-x+y, -x, z'
 '-x, -y, z'
 'y, -x+y, z'
 'x-y, x, z'
 'y, x, -z'
 'x-y, -y, -z'
 '-x, -x+y, -z'
 '-y, -x, -z'
 '-x+y, y, -z'
 'x, x-y, -z'
 '-x, -y, -z'
 'y, -x+y, -z'
 'x-y, x, -z'
 'x, y, -z'
 '-y, x-y, -z'
 '-x+y, -x, -z'
 '-y, -x, z'
 '-x+y, y, z'
 'x, x-y, z'
 'y, x, z'
 'x-y, -y, z'
 '-x, -x+y, z'
 
_cell_length_a                    5.5059(6)
_cell_length_b                    5.5059(6)
_cell_length_c                    9.2952(17)
_cell_angle_alpha                 90
_cell_angle_beta                  90
_cell_angle_gamma                 120
_cell_volume                      244.03(7)
_cell_formula_units_Z             1
_cell_measurement_temperature     130
_cell_measurement_reflns_used     ?
_cell_measurement_theta_min       ?
_cell_measurement_theta_max       ?
 
_exptl_crystal_description        ?
_exptl_crystal_colour             ?
_exptl_crystal_density_meas       ?
_exptl_crystal_density_method     ?
_exptl_crystal_density_diffrn     6.087          
_exptl_crystal_F_000              379
_exptl_transmission_factor_min    ?
_exptl_transmission_factor_max    ?
_exptl_crystal_size_max           ?
_exptl_crystal_size_mid           ?
_exptl_crystal_size_min           ?
_exptl_absorpt_coefficient_mu     4.958
_shelx_estimated_absorpt_T_min    ?
_shelx_estimated_absorpt_T_max    ?
_exptl_absorpt_correction_type   multi-scan
_exptl_absorpt_correction_T_min  0.1727
_exptl_absorpt_correction_T_max  0.7439
_exptl_absorpt_process_details
;
 SADABS 2016/2: Krause, L., Herbst-Irmer, R., Sheldrick G.M. & Stalke D.,
 J. Appl. Cryst. 48 (2015) 3-10
;
_exptl_absorpt_special_details    ?
_diffrn_ambient_temperature       293(2)
_diffrn_radiation_wavelength      0.42755
_diffrn_radiation_type            ?
_diffrn_source                    ?
_diffrn_measurement_device_type   ?
_diffrn_measurement_method        ?
_diffrn_detector_area_resol_mean  ?
_diffrn_reflns_number             2472
_diffrn_reflns_av_unetI/netI      0.0331
_diffrn_reflns_av_R_equivalents   0.0660
_diffrn_reflns_limit_h_min        -6
_diffrn_reflns_limit_h_max        6
_diffrn_reflns_limit_k_min        -5
_diffrn_reflns_limit_k_max        6
_diffrn_reflns_limit_l_min        -10
_diffrn_reflns_limit_l_max        10
_diffrn_reflns_theta_min          1.318
_diffrn_reflns_theta_max          15.452
_diffrn_reflns_theta_full         14.864
_diffrn_measured_fraction_theta_max   0.978
_diffrn_measured_fraction_theta_full  0.992
_diffrn_reflns_Laue_measured_fraction_max    0.978
_diffrn_reflns_Laue_measured_fraction_full   0.992
_diffrn_reflns_point_group_measured_fraction_max   0.978
_diffrn_reflns_point_group_measured_fraction_full  0.992
_reflns_number_total              134
_reflns_number_gt                 134
_reflns_threshold_expression      'I > 2\s(I)'
_reflns_Friedel_coverage          0.000
_reflns_Friedel_fraction_max      .
_reflns_Friedel_fraction_full     .
 
_reflns_special_details
;
 Reflections were merged by SHELXL according to the crystal
 class for the calculation of statistics and refinement.
 
 _reflns_Friedel_fraction is defined as the number of unique
 Friedel pairs measured divided by the number that would be
 possible theoretically, ignoring centric projections and
 systematic absences.
;
 
_computing_data_collection        ?
_computing_cell_refinement        ?
_computing_data_reduction         ?
_computing_structure_solution     ?
_computing_structure_refinement 'SHELXL-2018/3 (Sheldrick, 2018)'
_computing_molecular_graphics     ?
_computing_publication_material   ?
_refine_special_details           ?
_refine_ls_structure_factor_coef  Fsqd
_refine_ls_matrix_type            full
_refine_ls_weighting_scheme       calc
_refine_ls_weighting_details
'w=1/[\s^2^(Fo^2^)+(0.1357P)^2^+0.4616P] where P=(Fo^2^+2Fc^2^)/3'
_atom_sites_solution_primary      ?
_atom_sites_solution_secondary    ?
_atom_sites_solution_hydrogens    .
_refine_ls_hydrogen_treatment     undef
_refine_ls_extinction_method      'SHELXL-2018/3 (Sheldrick 2018)'
_refine_ls_extinction_coef        0.50(8)
_refine_ls_extinction_expression
 'Fc^*^=kFc[1+0.001xFc^2^\l^3^/sin(2\q)]^-1/4^'
_refine_ls_number_reflns          134
_refine_ls_number_parameters      10
_refine_ls_number_restraints      1
_refine_ls_R_factor_all           0.0809
_refine_ls_R_factor_gt            0.0809
_refine_ls_wR_factor_ref          0.1960
_refine_ls_wR_factor_gt           0.1960
_refine_ls_goodness_of_fit_ref    1.394
_refine_ls_restrained_S_all       1.391
_refine_ls_shift/su_max           0.000
_refine_ls_shift/su_mean          0.000
 
loop_
 _atom_site_label
 _atom_site_type_symbol
 _atom_site_fract_x
 _atom_site_fract_y
 _atom_site_fract_z
 _atom_site_U_iso_or_equiv
 _atom_site_adp_type
 _atom_site_occupancy
 _atom_site_site_symmetry_order  
 _atom_site_calc_flag
 _atom_site_refinement_flags_posn
 _atom_site_refinement_flags_adp
 _atom_site_refinement_flags_occupancy
 _atom_site_disorder_assembly
 _atom_site_disorder_group
Sb01 Sb 0.666667 0.333333 0.75657(12) 0.0052(13) Uani 1 6 d S TU P . .
Cs02 Cs 1.000000 0.000000 0.500000 0.0136(13) Uani 1 24 d S TU P . .
Sb03 Sb 0.000000 0.000000 1.000000 0.0049(13) Uani 1 24 d S T P . .
V004 V 0.500000 0.000000 1.000000 0.0036(13) Uiso 1 8 d S . P . .
 
loop_
 _atom_site_aniso_label
 _atom_site_aniso_U_11
 _atom_site_aniso_U_22
 _atom_site_aniso_U_33
 _atom_site_aniso_U_23
 _atom_site_aniso_U_13
 _atom_site_aniso_U_12
Sb01 0.0058(15) 0.0058(15) 0.0038(16) 0.000 0.000 0.0029(7)
Cs02 0.0129(16) 0.0129(16) 0.015(2) 0.000 0.000 0.0065(8)
Sb03 0.0046(15) 0.0046(15) 0.005(2) 0.000 0.000 0.0023(8)
 
_geom_special_details
;
 All esds (except the esd in the dihedral angle between two l.s. planes)
 are estimated using the full covariance matrix.  The cell esds are taken
 into account individually in the estimation of esds in distances, angles
 and torsion angles; correlations between esds in cell parameters are only
 used when they are defined by crystal symmetry.  An approximate (isotropic)
 treatment of cell esds is used for estimating esds involving l.s. planes.
;
 
loop_
 _geom_bond_atom_site_label_1
 _geom_bond_atom_site_label_2
 _geom_bond_distance
 _geom_bond_site_symmetry_2
 _geom_bond_publ_flag
Sb01 V004 2.7652(10) 2_655 ?
Sb01 V004 2.7652(10) . ?
Sb01 V004 2.7652(10) 3_665 ?
Sb01 Sb01 3.1788(3) 4_665 ?
Sb01 Sb01 3.1788(3) 4_655 ?
Sb01 Sb01 3.1788(3) 4_765 ?
Sb01 Cs02 3.9740(8) 1_455 ?
Sb01 Cs02 3.9740(8) . ?
Sb01 Cs02 3.9740(8) 1_565 ?
Sb03 V004 2.7530(3) 3_665 ?
Sb03 V004 2.7530(3) 3 ?
Sb03 V004 2.7529(3) . ?
Sb03 V004 2.7530(3) 2_545 ?
Sb03 V004 2.7530(3) 2 ?
Sb03 V004 2.7529(3) 1_455 ?
V004 V004 2.7530(3) 2_655 ?
V004 V004 2.7530(3) 2_545 ?
V004 V004 2.7530(3) 3_665 ?
V004 V004 2.7530(3) 3_655 ?
 
loop_
 _geom_angle_atom_site_label_1
 _geom_angle_atom_site_label_2
 _geom_angle_atom_site_label_3
 _geom_angle
 _geom_angle_site_symmetry_1
 _geom_angle_site_symmetry_3
 _geom_angle_publ_flag
V004 Sb01 V004 59.71(2) 2_655 . ?
V004 Sb01 V004 59.71(2) 2_655 3_665 ?
V004 Sb01 V004 59.71(2) . 3_665 ?
V004 Sb01 Sb01 106.702(6) 2_655 4_665 ?
V004 Sb01 Sb01 106.702(6) . 4_665 ?
V004 Sb01 Sb01 54.914(14) 3_665 4_665 ?
V004 Sb01 Sb01 106.702(6) 2_655 4_655 ?
V004 Sb01 Sb01 54.914(15) . 4_655 ?
V004 Sb01 Sb01 106.702(6) 3_665 4_655 ?
Sb01 Sb01 Sb01 120.0 4_665 4_655 ?
V004 Sb01 Sb01 54.914(15) 2_655 4_765 ?
V004 Sb01 Sb01 106.702(6) . 4_765 ?
V004 Sb01 Sb01 106.702(6) 3_665 4_765 ?
Sb01 Sb01 Sb01 120.0 4_665 4_765 ?
Sb01 Sb01 Sb01 120.0 4_655 4_765 ?
V004 Sb01 Cs02 161.96(3) 2_655 1_455 ?
V004 Sb01 Cs02 105.140(9) . 1_455 ?
V004 Sb01 Cs02 105.140(9) 3_665 1_455 ?
Sb01 Sb01 Cs02 66.425(5) 4_665 1_455 ?
Sb01 Sb01 Cs02 66.425(5) 4_655 1_455 ?
Sb01 Sb01 Cs02 143.122(14) 4_765 1_455 ?
V004 Sb01 Cs02 105.140(9) 2_655 . ?
V004 Sb01 Cs02 105.140(9) . . ?
V004 Sb01 Cs02 161.96(3) 3_665 . ?
Sb01 Sb01 Cs02 143.122(14) 4_665 . ?
Sb01 Sb01 Cs02 66.424(5) 4_655 . ?
Sb01 Sb01 Cs02 66.424(5) 4_765 . ?
Cs02 Sb01 Cs02 87.70(2) 1_455 . ?
V004 Sb01 Cs02 105.140(9) 2_655 1_565 ?
V004 Sb01 Cs02 161.96(3) . 1_565 ?
V004 Sb01 Cs02 105.140(9) 3_665 1_565 ?
Sb01 Sb01 Cs02 66.425(5) 4_665 1_565 ?
Sb01 Sb01 Cs02 143.122(14) 4_655 1_565 ?
Sb01 Sb01 Cs02 66.425(5) 4_765 1_565 ?
Cs02 Sb01 Cs02 87.70(2) 1_455 1_565 ?
Cs02 Sb01 Cs02 87.70(2) . 1_565 ?
Sb01 Cs02 Sb01 180.00(3) 16_546 4_765 ?
Sb01 Cs02 Sb01 47.150(9) 16_546 13_656 ?
Sb01 Cs02 Sb01 132.850(9) 4_765 13_656 ?
Sb01 Cs02 Sb01 132.850(9) 16_546 1_655 ?
Sb01 Cs02 Sb01 47.150(9) 4_765 1_655 ?
Sb01 Cs02 Sb01 180.00(3) 13_656 1_655 ?
Sb01 Cs02 Sb01 132.849(10) 16_546 . ?
Sb01 Cs02 Sb01 47.151(10) 4_765 . ?
Sb01 Cs02 Sb01 92.30(2) 13_656 . ?
Sb01 Cs02 Sb01 87.70(2) 1_655 . ?
Sb01 Cs02 Sb01 87.70(2) 16_546 16_656 ?
Sb01 Cs02 Sb01 92.30(2) 4_765 16_656 ?
Sb01 Cs02 Sb01 106.24(3) 13_656 16_656 ?
Sb01 Cs02 Sb01 73.76(3) 1_655 16_656 ?
Sb01 Cs02 Sb01 132.849(9) . 16_656 ?
Sb01 Cs02 Sb01 106.24(3) 16_546 13_766 ?
Sb01 Cs02 Sb01 73.76(3) 4_765 13_766 ?
Sb01 Cs02 Sb01 87.70(2) 13_656 13_766 ?
Sb01 Cs02 Sb01 92.30(2) 1_655 13_766 ?
Sb01 Cs02 Sb01 92.30(2) . 13_766 ?
Sb01 Cs02 Sb01 47.150(9) 16_656 13_766 ?
Sb01 Cs02 Sb01 92.30(2) 16_546 4_655 ?
Sb01 Cs02 Sb01 87.70(2) 4_765 4_655 ?
Sb01 Cs02 Sb01 73.76(3) 13_656 4_655 ?
Sb01 Cs02 Sb01 106.24(3) 1_655 4_655 ?
Sb01 Cs02 Sb01 47.151(9) . 4_655 ?
Sb01 Cs02 Sb01 180.0 16_656 4_655 ?
Sb01 Cs02 Sb01 132.850(9) 13_766 4_655 ?
Sb01 Cs02 Sb01 73.76(3) 16_546 1_545 ?
Sb01 Cs02 Sb01 106.24(3) 4_765 1_545 ?
Sb01 Cs02 Sb01 92.30(2) 13_656 1_545 ?
Sb01 Cs02 Sb01 87.70(2) 1_655 1_545 ?
Sb01 Cs02 Sb01 87.70(2) . 1_545 ?
Sb01 Cs02 Sb01 132.850(9) 16_656 1_545 ?
Sb01 Cs02 Sb01 180.0 13_766 1_545 ?
Sb01 Cs02 Sb01 47.150(9) 4_655 1_545 ?
Sb01 Cs02 Sb01 92.30(2) 16_546 4_755 ?
Sb01 Cs02 Sb01 87.70(2) 4_765 4_755 ?
Sb01 Cs02 Sb01 132.849(9) 13_656 4_755 ?
Sb01 Cs02 Sb01 47.151(9) 1_655 4_755 ?
Sb01 Cs02 Sb01 106.24(3) . 4_755 ?
Sb01 Cs02 Sb01 92.30(2) 16_656 4_755 ?
Sb01 Cs02 Sb01 132.849(9) 13_766 4_755 ?
Sb01 Cs02 Sb01 87.70(2) 4_655 4_755 ?
Sb01 Cs02 Sb01 47.151(9) 1_545 4_755 ?
Sb01 Cs02 Sb01 47.151(9) 16_546 13_756 ?
Sb01 Cs02 Sb01 132.849(10) 4_765 13_756 ?
Sb01 Cs02 Sb01 87.70(2) 13_656 13_756 ?
Sb01 Cs02 Sb01 92.30(2) 1_655 13_756 ?
Sb01 Cs02 Sb01 180.0 . 13_756 ?
Sb01 Cs02 Sb01 47.151(9) 16_656 13_756 ?
Sb01 Cs02 Sb01 87.70(2) 13_766 13_756 ?
Sb01 Cs02 Sb01 132.849(9) 4_655 13_756 ?
Sb01 Cs02 Sb01 92.30(2) 1_545 13_756 ?
Sb01 Cs02 Sb01 73.76(3) 4_755 13_756 ?
Sb01 Cs02 Sb01 87.70(2) 16_546 16_556 ?
Sb01 Cs02 Sb01 92.30(2) 4_765 16_556 ?
Sb01 Cs02 Sb01 47.151(9) 13_656 16_556 ?
Sb01 Cs02 Sb01 132.849(9) 1_655 16_556 ?
Sb01 Cs02 Sb01 73.76(3) . 16_556 ?
Sb01 Cs02 Sb01 87.70(2) 16_656 16_556 ?
Sb01 Cs02 Sb01 47.151(9) 13_766 16_556 ?
Sb01 Cs02 Sb01 92.30(2) 4_655 16_556 ?
Sb01 Cs02 Sb01 132.849(9) 1_545 16_556 ?
Sb01 Cs02 Sb01 180.0 4_755 16_556 ?
Sb01 Cs02 Sb01 106.24(3) 13_756 16_556 ?
V004 Sb03 V004 180.0 3_665 3 ?
V004 Sb03 V004 60.0 3_665 . ?
V004 Sb03 V004 120.0 3 . ?
V004 Sb03 V004 120.0 3_665 2_545 ?
V004 Sb03 V004 60.0 3 2_545 ?
V004 Sb03 V004 60.0 . 2_545 ?
V004 Sb03 V004 60.0 3_665 2 ?
V004 Sb03 V004 120.0 3 2 ?
V004 Sb03 V004 120.0 . 2 ?
V004 Sb03 V004 180.0 2_545 2 ?
V004 Sb03 V004 120.0 3_665 1_455 ?
V004 Sb03 V004 60.0 3 1_455 ?
V004 Sb03 V004 180.0 . 1_455 ?
V004 Sb03 V004 120.0 2_545 1_455 ?
V004 Sb03 V004 60.0 2 1_455 ?
V004 V004 V004 180.0 2_655 2_545 ?
V004 V004 V004 60.0 2_655 3_665 ?
V004 V004 V004 120.0 2_545 3_665 ?
V004 V004 V004 120.0 2_655 3_655 ?
V004 V004 V004 60.0 2_545 3_655 ?
V004 V004 V004 180.0 3_665 3_655 ?
V004 V004 Sb03 120.0 2_655 . ?
V004 V004 Sb03 60.0 2_545 . ?
V004 V004 Sb03 60.0 3_665 . ?
V004 V004 Sb03 120.0 3_655 . ?
V004 V004 Sb03 60.0 2_655 1_655 ?
V004 V004 Sb03 120.0 2_545 1_655 ?
V004 V004 Sb03 120.0 3_665 1_655 ?
V004 V004 Sb03 60.0 3_655 1_655 ?
Sb03 V004 Sb03 180.0 . 1_655 ?
V004 V004 Sb01 119.854(12) 2_655 4_655 ?
V004 V004 Sb01 60.146(12) 2_545 4_655 ?
V004 V004 Sb01 119.854(12) 3_665 4_655 ?
V004 V004 Sb01 60.146(12) 3_655 4_655 ?
Sb03 V004 Sb01 90.0 . 4_655 ?
Sb03 V004 Sb01 90.0 1_655 4_655 ?
V004 V004 Sb01 60.146(12) 2_655 16_557 ?
V004 V004 Sb01 119.854(12) 2_545 16_557 ?
V004 V004 Sb01 60.146(12) 3_665 16_557 ?
V004 V004 Sb01 119.854(12) 3_655 16_557 ?
Sb03 V004 Sb01 90.0 . 16_557 ?
Sb03 V004 Sb01 90.0 1_655 16_557 ?
Sb01 V004 Sb01 180.0 4_655 16_557 ?
V004 V004 Sb01 119.854(12) 2_655 13_657 ?
V004 V004 Sb01 60.146(12) 2_545 13_657 ?
V004 V004 Sb01 119.854(12) 3_665 13_657 ?
V004 V004 Sb01 60.146(12) 3_655 13_657 ?
Sb03 V004 Sb01 90.0 . 13_657 ?
Sb03 V004 Sb01 90.0 1_655 13_657 ?
Sb01 V004 Sb01 109.83(3) 4_655 13_657 ?
Sb01 V004 Sb01 70.17(3) 16_557 13_657 ?
V004 V004 Sb01 60.146(12) 2_655 . ?
V004 V004 Sb01 119.854(12) 2_545 . ?
V004 V004 Sb01 60.146(12) 3_665 . ?
V004 V004 Sb01 119.854(12) 3_655 . ?
Sb03 V004 Sb01 90.0 . . ?
Sb03 V004 Sb01 90.0 1_655 . ?
Sb01 V004 Sb01 70.17(3) 4_655 . ?
Sb01 V004 Sb01 109.83(3) 16_557 . ?
Sb01 V004 Sb01 180.00(3) 13_657 . ?
 
_refine_diff_density_max    3.182
_refine_diff_density_min   -5.713
_refine_diff_density_rms    1.029

_shelx_res_file
;
CELL  0.42755     5.5059   5.5059   9.2952   90.000   90.000  120.000
ZERR    1.000   0.0006   0.0006   0.0017    0.000    0.000    0.000
LATT  1
SYMM -Y, X-Y, Z
SYMM -X+Y, -X, Z
SYMM -X, -Y, Z
SYMM Y, -X+Y, Z
SYMM X-Y, X, Z
SYMM Y, X, -Z
SYMM X-Y, -Y, -Z
SYMM -X, -X+Y, -Z
SYMM -Y, -X, -Z
SYMM -X+Y, Y, -Z
SYMM X, X-Y, -Z
SFAC CS SB V
DISP $Cs -1.34770  0.86526 2263.02711!source kissel
DISP $Sb -2.44993  0.62788 1659.22929!source kissel
DISP $V  0.15360  0.20190 513.01451!source kissel
UNIT 1 5 3
L.S. 10
BOND $H
LIST 6
FMAP 2
ACTA
PLAN -10
SIMU
DELU
WGHT    0.135700    0.461600
EXTI    0.502489
FVAR       0.52316
SB01  2    0.666667    0.333333    0.756568    10.16667    0.00583    0.00583 =
         0.00382    0.00000    0.00000    0.00291
CS02  1    1.000000    0.000000    0.500000    10.04167    0.01291    0.01291 =
         0.01484    0.00000    0.00000    0.00646
SB03  2    0.000000    0.000000    1.000000    10.04167    0.00462    0.00462 =
         0.00535    0.00000    0.00000    0.00231
V004  3    0.500000    0.000000    1.000000    10.12500    0.00365
HKLF 4




REM
REM wR2 = 0.196042, GooF = S = 1.39357, Restrained GooF = 1.39136 for all data
REM R1 = 0.080931 for 134 Fo > 4sig(Fo) and 0.080931 for all 134 data
REM 10 parameters refined using 1 restraints

END

WGHT      0.1464      0.3987

REM Highest difference peak  3.182,  deepest hole -5.713,  1-sigma level  1.029
Q1    1   0.8597  0.1403  1.0000  10.25000  0.05    3.18
Q2    1   0.2340  0.2340  1.0000  10.25000  0.05    3.16
Q3    1   0.2115  0.7885  0.7565  10.50000  0.05    2.66
Q4    1   0.6667  0.3333  1.0000  10.08333  0.05    2.63
Q5    1   0.2303  0.2303  0.5000  10.25000  0.05    2.49
Q6    1   0.4529  0.5471  0.7544  10.50000  0.05    2.22
Q7    1   0.6667  0.3333  0.5000  10.08333  0.05    1.89
Q8    1   1.0000  0.0000  0.7439  10.08333  0.05    1.79
Q9    1   0.7730  0.0000  0.3970  10.50000  0.05    1.74
Q10   1   1.0000  0.5000  0.3477  10.25000  0.05    1.46
;
_shelx_res_checksum   92449

_shelx_hkl_file
;
   1  -1   0 75.3853 6.87281   1
   1  -1   0 73.7805 6.87291   1
   1   0   0 67.1184 6.88004   1
   1   0   0 69.9439 6.88269   1
   0   1   0 77.2745 6.86912   1
   0   1   0 61.2173 6.86732   1
   0  -1   0 64.8875 6.86753   1
   0  -1   0 82.7018 6.87025   1
  -1   0   0 67.3148 6.88022   1
  -1   1   0 76.3547 6.87321   1
  -1   1   0 74.4238 6.87246   1
  -1   0   0 67.1114 6.88122   1
   2  -1   0 2191.22 271.888   1
   1   1   0 3357.76 271.908   1
   1   1   0 2877.35 271.899   1
  -2   1   0 2736.19 271.902   1
  -1  -1   0 2768.26 271.896   1
  -1  -1   0 3144.33 271.902   1
  -2   1   0 2844.63 271.905   1
   2  -1   0 2741.79 271.902   1
   0  -2   0 480.460 47.5838   1
   0  -2   0 492.637 47.5842   1
   0   2   0 532.163 47.5858   1
  -2   0   0 431.034 47.6099   1
  -2   0   0 469.227 47.6153   1
   2  -2   0 549.069 47.5976   1
   2   0   0 463.180 47.6138   1
   2   0   0 457.821 47.6129   1
   0   2   0 495.704 47.5846   1
   2  -2   0 584.837 47.5986   1
   1   2   0 45.9773 4.12033   1
   3  -1   0 44.3199 4.13662   1
  -2  -1   0 43.9160 4.13121   1
   2   1   0 43.0887 4.13076   1
  -1  -2   0 43.2467 4.11598   1
  -1  -2   0 37.4995 4.10848   1
   2   1   0 41.6705 4.12685   1
   1   2   0 37.6595 4.10965   1
  -2  -1   0 41.3341 4.12487   1
   3  -2   0 43.5438 4.12154   1
   3  -2   0 44.1178 4.12629   1
   3  -3   0 2895.59 273.492   1
   3   0   0 2664.98 273.557   1
  -3   0   0 2665.68 273.557   1
   3   0   0 2894.79 273.573   1
  -3   3   0 2801.23 273.490   1
  -3   3   0 3151.75 273.502   1
   3  -3   0 3141.31 273.499   1
   0  -3   0 2710.81 273.470   1
   0   3   0 2444.33 273.466   1
  -3   0   0 3121.47 273.592   1
  -2  -2   0 3843.98 371.817   1
  -2  -2   0 3780.13 371.810   1
   2   2   0 4056.38 371.827   1
  -4   2   0 3940.22 371.848   1
   2   2   0 3802.85 371.815   1
   4  -2   0 3813.75 371.842   1
  -1  -3   0 31.1707 2.94515   1
   3   1   0 30.3341 2.97962   1
   1   3   0 30.1739 2.94269   1
   4  -3   0 28.3871 2.95534   1
   3   1   0 33.7847 2.98804   1
  -3  -1   0 33.2816 2.98516   1
  -3   4   0 33.5559 2.92105   1
  -3   4   0 27.1247 2.91631   1
   4  -1   0 34.0094 2.99541   1
   4  -1   0 29.0334 2.98338   1
  -1  -3   0 27.9234 2.94120   1
   1   3   0 26.0952 2.93816   1
   4  -3   0 28.3494 2.95227   1
  -4   3   0 28.7494 2.95438   1
  -4   3   0 29.5871 2.96204   1
   0  -4   0 292.678 29.3854   1
   4  -4   0 324.249 29.4081   1
  -4   4   0 315.103 29.4069   1
  -4   4   0 321.112 29.4085   1
   0  -4   0 287.350 29.3885   1
   0   4   0 304.606 29.3908   1
   4   0   0 300.817 29.4629   1
   0   4   0 290.175 29.3843   1
   4   0   0 303.590 29.4630   1
   4  -4   0 318.310 29.4083   1
   5  -3   0 24.4744 2.37567   1
   2   3   0 25.6984 2.36712   1
   3   2   0 22.1123 2.37124   1
  -3  -2   0 23.4487 2.37688   1
  -3  -2   0 19.5293 2.36016   1
  -5   3   0 23.5613 2.37616   1
  -5   2   0 25.9254 2.39998   1
   3   2   0 19.9850 2.36490   1
   5  -3   0 22.7363 2.37280   1
  -5   2   0 25.4865 2.39818   1
  -2  -3   0 25.9591 2.36791   1
   5  -2   0 25.6992 2.39676   1
  -5   3   0 23.8034 2.37397   1
  -5   1   0 2063.83 244.263   1
   5  -1   0 2244.72 244.296   1
  -5   4   0 2449.48 244.217   1
  -5   1   0 2213.22 244.285   1
   1   4   0 2890.53 244.210   1
  -5   4   0 2614.76 244.230   1
   4  -5   0 2596.60 244.143   1
  -1  -4   0 2752.35 244.193   1
   4  -5   0 2995.38 244.154   1
   5  -4   0 2407.33 244.212   1
   1   4   0 2876.45 244.204   1
  -4   5   0 2513.98 244.180   1
  -1  -4   0 2701.68 244.200   1
   5  -1   0 2125.90 244.270   1
   5  -4   0 2679.29 244.233   1
   4   1   0 2620.92 244.323   1
   4   1   0 2491.31 244.306   1
   0  -5   0 21.8122 2.12809   1
   0   5   0 22.2698 2.12901   1
  -5   0   0 26.2587 2.25346   1
   5   0   0 19.6979 2.21397   1
  -5   5   0 20.9375 2.17646   1
   5  -5   0 18.4027 2.14448   1
   0  -5   0 19.3038 2.12967   1
   0   5   0 20.1695 2.13219   1
  -5   0   0 20.1719 2.22277   1
   5   0   0 25.7583 2.25930   1
   5  -5   0 23.7651 2.15716   1
   6  -3   0 2116.17 219.058   1
  -6   3   0 2116.16 219.063   1
   3   3   0 2365.41 219.051   1
   6  -3   0 2030.80 219.051   1
  -6   3   0 2182.23 219.067   1
   3   3   0 2871.86 219.130   1
  -6   4   0 204.516 20.0238   1
   4   2   0 214.344 20.0593   1
  -6   2   0 193.754 20.0481   1
   2   4   0 216.045 19.9979   1
  -2  -4   0 214.688 20.0105   1
  -6   4   0 203.366 20.0216   1
   6  -4   0 214.135 20.0340   1
   4   2   0 190.534 20.0363   1
  -2  -4   0 216.972 19.9969   1
   6  -2   0 199.383 20.0579   1
   2   4   0 214.410 20.0119   1
   6  -4   0 206.193 20.0239   1
  -5   6   0 14.7300 1.45880   1
   1   5   0 15.4106 1.48081   1
   1   5   0 14.2358 1.48462   1
  -1  -5   0 14.0844 1.46886   1
   6  -5   0 15.2249 1.50491   1
  -1  -5   0 14.0289 1.48350   1
   0   0  -1 433.712 36.4635   1
   0   0   1 303.039 36.4507   1
   0   0  -1 401.726 36.4637   1
   0  -1   1 158.788 15.5480   1
   0   1  -1 176.076 15.5490   1
   1   0  -1 184.551 15.5671   1
   0  -1   1 166.417 15.5495   1
   1  -1   1 158.927 15.5506   1
   0  -1  -1 150.971 15.5515   1
   0   1   1 133.670 15.5489   1
   0   1  -1 179.360 15.5510   1
  -1   0   1 165.682 15.5643   1
  -1   0  -1 162.452 15.5643   1
  -1   0  -1 161.875 15.5608   1
   1  -1  -1 173.278 15.5548   1
   1   0   1 142.757 15.5585   1
   1   0   1 148.828 15.5627   1
  -1   1   1 143.724 15.5514   1
   0  -1  -1 166.797 15.5522   1
   1   0  -1 179.612 15.5689   1
  -1   0   1 176.383 15.5691   1
  -1   1  -1 166.512 15.5522   1
  -1   1   1 161.015 15.5532   1
   0   1   1 157.650 15.5509   1
   1  -1   1 141.504 15.5494   1
  -1   1  -1 165.177 15.5503   1
   1  -1  -1 163.213 15.5546   1
  -2   1  -1 51.8897 5.11602   1
   1  -2  -1 57.4037 5.10156   1
  -1  -1   1 54.9088 5.11627   1
   2  -1   1 50.5332 5.11326   1
   1   1   1 51.3969 5.11263   1
  -1  -1  -1 51.0926 5.11607   1
   1   1   1 50.5297 5.11489   1
   2  -1  -1 54.6150 5.12152   1
  -2   1  -1 50.6282 5.11208   1
   1   1  -1 54.1031 5.11579   1
  -1  -1   1 56.0565 5.11661   1
  -1  -1  -1 50.6804 5.11091   1
   1   1  -1 54.4323 5.11766   1
   2  -1   1 52.3096 5.11828   1
  -2   2  -1 403.815 36.4417   1
   0   2  -1 407.123 36.4360   1
   0  -2  -1 378.745 36.4392   1
   2  -2  -1 419.595 36.4507   1
  -2   0  -1 363.885 36.4647   1
   2   0  -1 411.967 36.4735   1
   0   2  -1 385.270 36.4333   1
   2   0   1 329.949 36.4576   1
  -2   0  -1 357.325 36.4600   1
  -2   2  -1 388.109 36.4392   1
  -2   0   1 373.300 36.4708   1
  -2   0   1 391.061 36.4712   1
   0   2   1 338.786 36.4356   1
   2   0   1 330.655 36.4618   1
   0  -2   1 413.785 36.4366   1
   2  -2   1 373.279 36.4403   1
   2   0  -1 383.144 36.4700   1
   0   2   1 363.216 36.4346   1
   0  -2   1 409.991 36.4354   1
   0  -2  -1 365.160 36.4337   1
  -2   3   1 97.0244 9.12047   1
   1   2   1 88.8133 9.14071   1
  -1  -2   1 95.0863 9.14070   1
   3  -1   1 92.1481 9.15741   1
   1  -3  -1 74.8778 9.10755   1
   3  -2  -1 99.9505 9.15247   1
   2   1  -1 92.4891 9.15487   1
  -2  -1  -1 97.4565 9.15638   1
   1   2   1 95.5575 9.13921   1
  -2   3   1 81.9367 9.11397   1
   3  -2  -1 98.4063 9.15479   1
   2   1  -1 95.6569 9.15902   1
  -1  -2   1 98.6651 9.14350   1
  -3   1  -1 94.3011 9.16043   1
   1   2  -1 95.3603 9.14137   1
   2  -3  -1 93.5988 9.11882   1
   3  -2   1 96.5789 9.14693   1
   2   1   1 96.6787 9.15655   1
  -3   2   1 96.6353 9.15411   1
   1   2  -1 94.7654 9.14084   1
  -1  -2  -1 89.9475 9.14076   1
  -1  -2  -1 95.6274 9.13885   1
   3  -1  -1 97.7741 9.16804   1
   2  -3  -1 100.213 9.12111   1
   3  -2   1 95.9002 9.14865   1
   3  -1  -1 96.1487 9.16528   1
   2   1   1 94.4398 9.15892   1
  -2  -1   1 98.6459 9.16066   1
  -2  -1   1 96.2494 9.15604   1
  -3   1  -1 93.1566 9.15567   1
  -3   2   1 103.063 9.15578   1
   3   0  -1 25.4836 2.43749   1
   3  -3   1 24.4708 2.39380   1
  -3   3   1 25.1619 2.39560   1
   0  -3  -1 24.8647 2.38266   1
  -3   0  -1 24.5479 2.42576   1
   0   3  -1 23.4657 2.38087   1
   0  -3   1 23.8518 2.38157   1
   0   3   1 23.8838 2.38833   1
   3  -3   1 23.0586 2.38821   1
   3   0  -1 25.4634 2.43361   1
   3   0   1 25.2854 2.43108   1
   3  -3  -1 25.5241 2.40266   1
   0   3  -1 22.6493 2.37949   1
   3   0   1 24.5838 2.43190   1
   0   3   1 25.0616 2.38391   1
   0  -3   1 23.6401 2.38190   1
  -3   0  -1 24.4945 2.43075   1
   0  -3  -1 23.1767 2.38805   1
  -3   3   1 26.2040 2.40568   1
   3  -3  -1 25.1845 2.39166   1
   2   2   1 399.846 39.7140   1
   4  -2  -1 418.337 39.7325   1
   2   2  -1 430.420 39.7173   1
  -4   2   1 387.316 39.7239   1
   4  -2  -1 375.641 39.7167   1
   4  -2   1 371.726 39.7132   1
   2   2   1 440.367 39.7192   1
  -2  -2   1 431.023 39.7151   1
  -4   2   1 406.633 39.7277   1
   2   2  -1 424.552 39.7148   1
  -2  -2  -1 412.355 39.7158   1
  -2  -2   1 446.772 39.7225   1
  -2  -2  -1 423.628 39.7120   1
   4  -3  -1 56.8772 5.64092   1
   1   3   1 54.5032 5.62765   1
  -3   4   1 58.8734 5.60363   1
   4  -1   1 59.2999 5.66588   1
   4  -3  -1 60.8387 5.64137   1
  -1  -3   1 58.9389 5.62952   1
   3   1  -1 55.1151 5.65380   1
  -3  -1  -1 56.0270 5.65149   1
   4  -1   1 56.8975 5.66764   1
   3   1  -1 57.7507 5.66018   1
   1   3   1 53.5472 5.61798   1
  -1  -3   1 57.2684 5.62526   1
  -4   1   1 59.3945 5.67603   1
  -4   1   1 61.2259 5.67753   1
  -3   4   1 55.2930 5.60556   1
   4  -1  -1 59.8198 5.67365   1
   3   1   1 56.9332 5.65563   1
  -1  -3  -1 54.7911 5.62624   1
  -4   1  -1 63.7425 5.71267   1
  -1  -3  -1 55.5075 5.62000   1
   3  -4  -1 53.9149 5.60443   1
   4  -1  -1 58.5775 5.66971   1
  -3  -1   1 56.6234 5.65830   1
   3   1   1 55.9092 5.72669   1
  -4   3   1 63.0175 5.64493   1
   1   3  -1 55.9578 5.62343   1
   3  -4  -1 63.7445 5.61021   1
   1   3  -1 56.4855 5.62584   1
  -4   3   1 57.1410 5.64018   1
   4  -3   1 56.6606 5.63325   1
   4  -3   1 67.8983 5.64788   1
  -4   4   1 237.548 22.6650   1
   4   0  -1 244.628 22.7250   1
   0   4   1 229.416 22.6487   1
  -4   0  -1 238.847 22.7208   1
   0   4  -1 240.460 22.6391   1
   4   0  -1 245.523 22.7244   1
  -4   0  -1 248.949 22.7193   1
  -4   4   1 223.915 22.6543   1
   0   4   1 194.016 22.6340   1
   4  -4  -1 244.067 22.6672   1
   4   0   1 249.648 22.7263   1
   4   0   1 244.257 22.7302   1
   0  -4  -1 234.382 22.6406   1
   0  -4   1 214.065 22.6372   1
   4  -4  -1 246.777 22.6584   1
   4  -4   1 242.320 22.6600   1
   4  -4   1 241.172 22.6549   1
   0   4  -1 212.274 22.6354   1
   0  -4   1 248.474 22.6417   1
   0  -4  -1 229.175 22.6471   1
  -5   3  -1 44.3220 3.92274   1
  -3  -2  -1 38.9972 3.83539   1
  -3  -2  -1 39.0282 3.84446   1
   3   2  -1 37.8931 3.83676   1
   5  -3  -1 37.1571 3.82618   1
   5  -3  -1 39.5703 3.84524   1
  -5   2   1 40.7952 3.86030   1
  -5   2   1 41.1459 3.85986   1
  -2  -3   1 39.3905 3.82439   1
  -2  -3   1 37.4594 3.81633   1
   3   2  -1 36.7424 3.83446   1
   2   3   1 38.5467 3.82904   1
   2   3   1 37.0021 3.81448   1
   5  -2   1 41.5304 3.85624   1
   3   2   1 39.2647 3.84662   1
   5  -3   1 40.1102 3.83606   1
  -5   3   1 40.5206 3.84901   1
  -2  -3  -1 38.5680 3.82660   1
   5  -2  -1 37.2481 3.85051   1
   2   3  -1 37.2377 3.81622   1
   2   3  -1 37.8461 3.82175   1
  -5   3   1 38.0552 3.83129   1
   5  -3   1 39.9420 3.83928   1
  -2  -3  -1 36.1521 3.80836   1
   3   2   1 38.8287 3.83531   1
   5  -1   1 6.20520 0.75164   1
   5  -4  -1 7.74160 0.73272   1
   4  -5   1 5.66661 0.67817   1
   4   1  -1 6.80567 0.76249   1
  -4   5   1 6.87484 0.69377   1
  -4   5   1 9.07931 0.70622   1
  -1  -4   1 6.56737 0.71168   1
  -5   1   1 7.15624 0.78358   1
  -4  -1  -1 7.22476 0.76475   1
   5  -4  -1 6.20143 0.72678   1
   1   4   1 6.30216 0.70128   1
  -1  -4   1 7.03205 0.71057   1
   4   1  -1 6.18761 0.75499   1
  -4  -1  -1 6.80929 0.75588   1
   5  -1   1 6.76197 0.76850   1
   4  -5   1 7.17235 0.68245   1
  -5   1   1 6.53048 0.77297   1
   1   4   1 5.79883 0.70802   1
   4  -5  -1 6.61801 0.68951   1
   4   1   1 7.13251 0.76904   1
   5  -4   1 6.20275 0.71642   1
   4   1   1 6.56297 0.75414   1
  -5   4   1 8.20295 0.73524   1
   5  -4   1 6.20050 0.71773   1
   5  -1  -1 6.56759 0.76888   1
  -1  -4  -1 6.37287 0.70264   1
  -1  -4  -1 5.99814 0.71109   1
  -4  -1   1 5.98144 0.77203   1
   1   4  -1 6.76805 0.70929   1
   5  -1  -1 6.75752 0.76930   1
   1   4  -1 6.48970 0.71415   1
  -5   4   1 6.09933 0.72576   1
   0   5  -1 27.0690 2.58909   1
   0  -5  -1 23.9223 2.59307   1
   0  -5  -1 26.7912 2.59077   1
   5   0   1 27.2444 2.69009   1
  -5   0   1 30.6147 2.71182   1
   0   5   1 23.8130 2.59349   1
   5  -5  -1 26.8586 2.62039   1
   0  -5   1 24.2030 2.58264   1
   5   0  -1 28.7590 2.70134   1
   0   5  -1 24.4900 2.58214   1
  -5   0   1 26.8747 2.69431   1
   5  -5   1 28.3322 2.60944   1
   5  -5   1 26.9040 2.60756   1
   0   5   1 25.5280 2.59014   1
   5  -5  -1 26.0600 2.60251   1
   5   0  -1 25.3543 2.68341   1
   0  -5   1 24.8275 2.58742   1
  -5   5   1 27.5099 2.62116   1
  -5   5   1 27.2968 2.61110   1
   5   0   1 27.0758 2.69448   1
  -3  -3  -1 4.18435 0.49671   1
  -3  -3  -1 3.59475 0.47829   1
   3   3   1 4.16086 0.49714   1
  -6   3   1 3.50097 0.50051   1
   6  -3   1 3.42750 0.48288   1
   3   3  -1 3.68705 0.48816   1
   6  -3  -1 5.22892 0.53355   1
   3   3   1 3.37697 0.47310   1
  -6   3   1 5.23999 0.53585   1
   6  -3   1 3.68728 0.50046   1
   3   3  -1 4.01356 0.49635   1
   6  -3  -1 3.44363 0.49666   1
  -6   2   1 188.179 17.3482   1
   2   4   1 169.127 17.2619   1
   2   4   1 174.995 17.2800   1
   4   2  -1 174.684 17.3173   1
   6  -4  -1 172.970 17.2988   1
   4   2  -1 178.267 17.3232   1
   6  -4  -1 170.548 17.2882   1
   4   2   1 187.735 17.3365   1
  -4  -2   1 174.635 17.3169   1
  -6   4   1 171.887 17.2906   1
  -2  -4  -1 175.991 17.2666   1
   2   4  -1 174.369 17.2710   1
  -6   4   1 178.303 17.3031   1
   6  -2  -1 190.678 17.3498   1
   4   2   1 174.808 17.3126   1
  -2  -4  -1 167.231 17.2735   1
   2   4  -1 171.128 17.2764   1
   6  -4   1 185.302 17.3003   1
  -6   2  -1 201.621 17.4247   1
   6  -4   1 184.501 17.3020   1
  -4  -2   1 191.457 17.3339   1
   1   5   1 15.1771 1.58578   1
   6  -5  -1 15.9900 1.59249   1
  -6   5  -1 15.1774 1.60550   1
  -6   5  -1 15.8613 1.60020   1
   6  -5  -1 16.3269 1.61061   1
   6  -5  -1 16.0716 1.60361   1
   1   5   1 15.6843 1.57422   1
   6  -5   1 15.1628 1.59941   1
  -1  -5  -1 15.7245 1.58858   1
  -6   5   1 15.6710 1.60962   1
   1   5  -1 15.2177 1.57634   1
  -5   6  -1 16.1842 1.55130   1
  -5   6  -1 14.7043 1.55064   1
  -1  -5  -1 15.2952 1.57238   1
   6  -5   1 15.8677 1.59767   1
  -6   5   1 16.5360 1.60231   1
   0   0  -2 104.448 9.37306   1
   0   0   2 81.0947 9.34915   1
   0   0  -2 101.654 9.35921   1
   0   0   2 99.8154 9.36426   1
  -1   0  -2 2235.58 211.431   1
   0  -1   2 2092.90 211.424   1
  -1   0  -2 2079.92 211.435   1
   1   0  -2 2190.95 211.437   1
   1  -1   2 2103.49 211.418   1
  -1   0   2 2029.60 211.430   1
  -1   1  -2 2222.21 211.423   1
   0  -1   2 2200.87 211.420   1
   0   1  -2 2453.15 211.429   1
   1  -1  -2 2347.43 211.432   1
   0  -1  -2 2354.13 211.437   1
   0   1   2 2077.52 211.430   1
   1  -1   2 2048.68 211.420   1
   1   0  -2 2222.21 211.434   1
  -1   1  -2 2272.03 211.419   1
   1   0   2 1754.40 211.425   1
   0  -1  -2 2509.91 211.436   1
  -1   0   2 1970.95 211.428   1
   0   1  -2 2501.65 211.423   1
   1  -1  -2 2310.83 211.439   1
   1   0   2 2174.47 211.432   1
   0   1   2 2307.32 211.435   1
  -2   1  -2 1105.47 105.678   1
   1  -2   2 1188.71 105.659   1
   1  -2  -2 1228.42 105.696   1
   1   1  -2 1167.11 105.676   1
  -1   2  -2 1134.93 105.658   1
  -1   2  -2 1276.84 105.699   1
  -1  -1  -2 1156.68 105.680   1
   1   1  -2 1052.07 105.679   1
   2  -1   2 1027.62 105.675   1
   2  -1   2 1020.36 105.684   1
  -1  -1   2 1040.18 105.679   1
  -2   1  -2 1080.60 105.686   1
  -1  -1   2 1141.32 105.681   1
  -1  -1  -2 983.962 105.681   1
   1  -2   2 1110.85 105.703   1
   1   1   2 1078.43 105.678   1
   2  -1  -2 1087.63 105.689   1
   1   1   2 931.171 105.676   1
   2   0  -2 3240.61 310.276   1
   0  -2  -2 2940.86 310.221   1
  -2   0   2 2818.37 310.265   1
   2  -2  -2 3023.94 310.232   1
   0  -2   2 3265.63 310.210   1
   0  -2   2 3027.01 310.212   1
   2   0   2 3010.99 310.267   1
   2  -2  -2 3785.88 310.248   1
  -2   2   2 3501.55 310.238   1
   2  -2   2 3119.09 310.217   1
   2  -2   2 3394.91 310.231   1
   0   2  -2 3597.42 310.214   1
   0  -2  -2 3454.87 310.228   1
  -2   2   2 3347.39 310.237   1
  -2   0  -2 3453.86 310.274   1
   0   2  -2 3130.77 310.212   1
  -2   2  -2 3297.41 310.219   1
   2   0   2 3269.66 310.269   1
  -2   0   2 2547.49 310.255   1
  -2   2  -2 3103.25 310.225   1
   0   2   2 3560.45 310.263   1
   2   0  -2 3395.12 310.275   1
  -2   0  -2 3051.10 310.267   1
  -1  -2   2 1873.88 176.110   1
   1  -3  -2 1958.97 176.090   1
   1   2   2 1597.51 176.103   1
  -3   2  -2 1776.17 176.100   1
   3  -1   2 1726.95 176.122   1
  -2  -1  -2 1977.63 176.135   1
   1   2   2 1913.03 176.107   1
  -3   1   2 1716.15 176.126   1
   2  -3   2 1544.83 176.055   1
  -3   2  -2 1837.32 176.114   1
   3  -2  -2 1928.71 176.117   1
  -2   3   2 1800.91 176.079   1
  -2   3   2 2043.52 176.089   1
  -1  -2   2 1929.07 176.103   1
   3  -2  -2 1781.32 176.123   1
   1  -3  -2 1906.90 176.135   1
   2   1  -2 1991.50 176.146   1
   1   2   2 1885.78 176.105   1
   2   1  -2 2028.00 176.140   1
  -3   1   2 1743.80 176.139   1
  -3   2   2 1875.81 176.132   1
   1   2  -2 1878.35 176.106   1
   2   1   2 1673.40 176.125   1
   2  -3  -2 1954.25 176.084   1
  -2  -1   2 1875.02 176.132   1
  -1  -2  -2 1797.39 176.112   1
  -3   1  -2 1858.76 176.130   1
   3  -1  -2 1624.37 176.127   1
   3  -2   2 1703.10 176.100   1
   1   2  -2 2169.90 176.114   1
   2   1   2 1817.31 176.127   1
  -1  -2  -2 1953.10 176.107   1
   2  -3  -2 1920.73 176.086   1
  -2   3  -2 1735.78 176.057   1
  -3   1  -2 1837.45 176.137   1
  -3   2   2 1773.31 176.114   1
  -2  -1   2 1825.39 176.138   1
  -1   3   2 1589.00 176.132   1
   3  -1  -2 1825.94 176.134   1
  -1   3   2 1803.04 176.080   1
   3  -2   2 1752.50 176.111   1
   0   3  -2 1125.01 99.5527   1
  -3   3  -2 1069.46 99.5660   1
   3  -3  -2 1071.04 99.5847   1
   0   3  -2 1083.62 99.5575   1
   0  -3  -2 1097.48 99.5638   1
   3  -3   2 987.475 99.5581   1
   3  -3   2 958.955 99.5642   1
   3   0  -2 1031.74 99.6163   1
  -3   3  -2 1088.39 99.5811   1
   0  -3   2 1049.71 99.5564   1
   3  -3  -2 1096.19 99.5773   1
   0  -3   2 1042.49 99.5516   1
   0  -3  -2 1011.82 99.5696   1
   3   0   2 911.939 99.6136   1
  -3   0  -2 943.881 99.6147   1
  -3   3   2 974.893 99.5765   1
  -3   3   2 1084.25 99.5767   1
  -4   2  -2 94.5186 8.82977   1
   2  -4  -2 78.0721 8.82681   1
   4  -2  -2 90.4424 8.82597   1
  -2   4   2 91.1989 8.79149   1
  -2  -2   2 95.5804 8.83161   1
   2   2  -2 82.3664 8.81483   1
  -4   2  -2 89.2555 8.83301   1
   4  -2   2 93.4876 8.82857   1
   2   2  -2 93.6919 8.81995   1
  -2  -2   2 101.775 8.82853   1
  -4   2   2 94.3290 8.82922   1
  -2  -2  -2 93.9455 8.83362   1
  -4   2   2 92.8488 8.84739   1
   4  -2  -2 92.5722 8.84947   1
   4  -2   2 96.0461 8.83947   1
   2   2   2 91.6017 8.83160   1
   2  -4  -2 84.0690 8.78772   1
  -2   4   2 84.5974 8.81600   1
  -3   4   2 1811.17 158.213   1
  -3  -1  -2 1767.39 158.298   1
  -4   1   2 1507.97 158.286   1
   3  -4   2 1376.65 158.177   1
   3  -4   2 1752.70 158.202   1
   4  -3  -2 1629.33 158.268   1
   4  -1   2 1519.96 158.280   1
   1   3   2 1677.16 158.236   1
  -1  -3   2 1840.87 158.246   1
   1  -4  -2 1476.59 158.236   1
   3   1  -2 1751.23 158.299   1
   3   1  -2 1692.77 158.301   1
  -1  -3   2 1560.41 158.220   1
  -3   4   2 1579.87 158.211   1
   1  -4  -2 1605.60 158.197   1
   1   3   2 1657.81 158.246   1
  -4   1   2 1573.82 158.303   1
   4  -1   2 1519.82 158.293   1
   4  -3  -2 1714.20 158.258   1
  -3   4  -2 1462.06 158.177   1
  -1   4   2 1469.56 158.204   1
   4  -3   2 1664.45 158.245   1
  -3   4  -2 1877.50 158.211   1
   3  -4  -2 1855.56 158.217   1
   4  -1  -2 1721.13 158.308   1
   1   3  -2 1752.53 158.230   1
   3   1   2 1569.07 158.295   1
  -1  -3  -2 1707.80 158.235   1
   3  -4  -2 1733.98 158.218   1
   1   3  -2 1825.25 158.243   1
  -4   1  -2 1565.50 158.293   1
   4  -3   2 1638.20 158.253   1
   4  -1  -2 1666.36 158.316   1
   3   1   2 1674.84 158.293   1
  -1  -3  -2 1814.25 158.258   1
  -4   3   2 1570.32 158.263   1
  -4   1  -2 1704.29 158.301   1
  -1   4   2 1380.55 158.260   1
  -4   3   2 1602.19 158.252   1
  -4   0   2 2625.70 256.978   1
   0   4   2 2722.31 256.835   1
   0  -4  -2 3056.11 256.848   1
   0   4  -2 2901.47 256.824   1
  -4   4   2 2790.13 256.867   1
   4  -4  -2 3095.86 256.887   1
   4   0  -2 2767.44 256.974   1
   4  -4  -2 2781.06 256.879   1
   4   0   2 2489.69 256.949   1
   0   4  -2 3064.58 256.820   1
   4   0   2 2385.82 256.947   1
   4  -4   2 2712.62 256.842   1
  -4   4  -2 2635.81 256.878   1
  -4   4  -2 2779.66 256.856   1
   4  -4   2 2482.49 256.838   1
   0  -4   2 2274.54 256.807   1
  -4   0  -2 2734.21 256.970   1
  -4   0   2 2367.22 256.937   1
   0  -4  -2 2742.59 256.847   1
   0   4   2 2340.58 256.832   1
   0  -4   2 2831.00 256.823   1
   4   0  -2 2473.19 256.952   1
  -4   0  -2 2481.99 256.956   1
   2   3   2 1556.22 140.819   1
   5  -3  -2 1436.05 140.892   1
  -5   2   2 1322.31 140.830   1
  -3  -2  -2 1547.74 140.846   1
   3   2  -2 1578.93 140.829   1
  -5   2   2 1466.03 140.846   1
   5  -2   2 1254.29 140.813   1
   2   3   2 1484.57 140.791   1
  -3  -2  -2 1545.26 140.827   1
  -2  -3   2 1526.70 140.799   1
   3   2  -2 1550.28 140.839   1
  -2  -3   2 1520.87 140.795   1
   5  -2   2 1330.65 140.810   1
  -3   5   2 1432.13 140.717   1
   5  -2  -2 1202.08 140.810   1
  -5   3   2 1377.64 140.804   1
  -2  -3  -2 1574.81 140.799   1
   2   3  -2 1619.70 140.801   1
   5  -3   2 1464.99 140.805   1
   3  -5  -2 1196.46 140.781   1
  -5   3   2 1408.67 140.820   1
  -5   2  -2 1535.72 140.897   1
   3   2   2 1547.39 140.852   1
   3  -5  -2 1447.45 140.718   1
   5  -3   2 1492.50 140.822   1
   3   2   2 1433.10 140.814   1
   2   3  -2 1561.33 140.801   1
  -2  -3  -2 1628.49 140.824   1
   5  -4  -2 660.135 63.8199   1
   1  -5  -2 669.589 63.7692   1
  -1  -4   2 688.601 63.8021   1
   4  -5   2 639.204 63.7655   1
   5  -1   2 656.408 63.8895   1
   1   4   2 670.256 63.8113   1
   4   1  -2 632.235 63.8633   1
  -4  -1  -2 674.001 63.8853   1
  -4   5   2 681.168 63.7918   1
  -1  -4   2 680.913 63.7961   1
   4   1  -2 671.280 63.8856   1
  -5   1   2 671.996 63.8981   1
  -4  -1  -2 685.530 63.8706   1
   5  -4  -2 614.723 63.8471   1
  -5   4  -2 557.902 63.8385   1
  -5   4  -2 686.613 63.8322   1
   4  -5   2 653.823 63.7572   1
  -5   1   2 652.830 63.8759   1
   5  -1   2 653.106 63.8691   1
  -4   5   2 658.887 63.7823   1
  -4   5  -2 690.588 63.7679   1
   5  -1  -2 613.328 63.8781   1
   4   1   2 682.996 63.8905   1
  -1   5   2 661.252 63.7729   1
  -4   5  -2 657.068 63.7555   1
   4  -5  -2 685.249 63.7890   1
  -5   4   2 653.695 63.8167   1
   1   4  -2 708.618 63.7992   1
  -4  -1   2 696.129 63.8953   1
  -5   4   2 659.782 63.8375   1
  -5   1  -2 685.338 63.8923   1
  -5   1  -2 652.327 63.9234   1
   5  -4   2 688.754 63.8150   1
   1   4  -2 691.557 63.8003   1
   5  -1  -2 652.755 63.8705   1
   5  -4   2 702.371 63.8270   1
  -1   5   2 522.428 63.7972   1
  -1  -4  -2 690.107 63.8139   1
   4   1   2 689.486 63.8755   1
   4  -5  -2 715.965 63.7950   1
  -5   0   2 989.875 120.660   1
   0  -5   2 1318.37 120.551   1
   0  -5  -2 1157.77 120.557   1
   5   0   2 1261.07 120.719   1
   0  -5  -2 1331.75 120.580   1
   5  -5   2 1297.30 120.575   1
   5  -5   2 1209.62 120.578   1
  -5   5  -2 1331.09 120.575   1
   0   5   2 1161.16 120.560   1
   5   0  -2 957.764 120.652   1
   5  -5  -2 1406.47 120.603   1
   0  -5   2 1303.17 120.551   1
   0   5   2 1275.35 120.577   1
   5   0  -2 1283.01 120.699   1
   0   5  -2 1328.28 120.552   1
  -5   5   2 1382.64 120.601   1
  -5   0   2 1266.03 120.706   1
  -5   5  -2 1290.54 120.582   1
  -5   5   2 1230.09 120.601   1
  -5   0  -2 1201.37 120.708   1
   0   5  -2 1349.62 120.545   1
   5  -5  -2 1289.61 120.610   1
   6  -3  -2 394.168 53.1588   1
  -6   3   2 559.364 53.1699   1
   3   3   2 584.620 53.1568   1
  -3  -3   2 583.381 53.1370   1
  -3  -3   2 547.097 53.1348   1
   3   3   2 547.324 53.1214   1
   3   3  -2 558.473 53.1254   1
  -3  -3  -2 569.873 53.1271   1
  -3  -3  -2 598.754 53.1589   1
   3   3  -2 535.690 53.1271   1
   6  -3   2 570.884 53.1454   1
  -6   3   2 544.730 53.1460   1
   6  -3   2 584.342 53.1672   1
   6  -4  -2 1928.94 213.919   1
   4   2  -2 2272.68 213.983   1
  -2  -4   2 2310.17 213.900   1
  -6   4  -2 2251.81 213.935   1
  -6   2   2 2170.15 214.006   1
  -2  -4   2 2366.43 213.910   1
   2   4   2 1988.01 213.871   1
  -6   4  -2 2253.51 213.923   1
   4   2  -2 2110.16 213.972   1
   2   4   2 2407.47 213.935   1
  -4  -2  -2 2155.97 213.956   1
  -4  -2  -2 2358.34 214.024   1
   6  -4  -2 2310.29 213.937   1
   6  -4  -2 2300.92 213.950   1
   6  -4   2 2278.05 213.933   1
   2   4  -2 2228.32 213.891   1
   6  -4   2 2203.30 213.931   1
  -6   4   2 2163.35 213.933   1
   4   2   2 2294.92 214.016   1
  -4  -2   2 2123.25 213.966   1
  -4  -2   2 2196.75 213.990   1
   4   2   2 2133.68 213.966   1
  -2  -4  -2 2243.54 213.893   1
  -6   4   2 2043.28 213.936   1
  -2  -4  -2 2454.69 213.937   1
   6  -2  -2 2008.02 214.037   1
   2   4  -2 2578.42 213.925   1
   6  -5  -2 1058.91 106.227   1
   1   5   2 1140.18 106.200   1
   6  -5  -2 1069.12 106.196   1
  -6   5  -2 1129.27 106.200   1
   1   5   2 1048.46 106.170   1
  -6   5  -2 1157.47 106.218   1
   1   5  -2 1195.79 106.185   1
  -6   5   2 1016.10 106.221   1
  -6   5   2 1088.44 106.209   1
  -5   6  -2 1086.37 106.141   1
  -1  -5  -2 1063.75 106.170   1
   6  -5   2 1150.87 106.209   1
   6  -5   2 1149.21 106.221   1
  -1  -5  -2 1105.98 106.195   1
  -1   6   2 1117.27 106.144   1
  -5   6  -2 1109.01 106.131   1
   0   0   3 267.845 23.9574   1
   0   0   3 227.259 23.9383   1
   0   0  -3 229.171 23.9407   1
   0   0  -3 269.304 23.9498   1
   1   0  -3 33.1977 3.10474   1
   1   0   3 29.7321 3.09803   1
   1  -1   3 32.1715 3.09706   1
   0  -1   3 30.8697 3.09875   1
  -1   0   3 29.2968 3.10497   1
   1  -1   3 34.8763 3.10411   1
  -1   1  -3 32.9452 3.09342   1
  -1   0  -3 30.8387 3.10068   1
   1   0  -3 33.2064 3.09454   1
  -1   0  -3 32.3838 3.09348   1
   1  -1  -3 32.1836 3.12151   1
  -1   0   3 31.5659 3.10035   1
   0  -1   3 32.0006 3.11322   1
   0   1  -3 29.7667 3.10337   1
  -1   1  -3 33.7445 3.10587   1
   0  -1  -3 30.3937 3.10473   1
   1   0   3 32.5511 3.09542   1
   0   1  -3 31.7068 3.11150   1
  -2   1  -3 300.364 28.5247   1
  -2   1   3 283.632 28.5211   1
  -1  -1   3 314.973 28.5158   1
   2  -1   3 299.908 28.5249   1
  -1   2   3 372.290 28.6250   1
  -2   1   3 301.738 28.5185   1
  -2   1  -3 301.230 28.5121   1
   1   1  -3 303.986 28.5128   1
   1  -2  -3 255.538 28.5633   1
  -1   2   3 190.226 28.5296   1
  -1   2  -3 361.653 28.5724   1
   2  -1   3 296.731 28.5127   1
  -1   2  -3 261.619 28.5225   1
  -1  -1   3 305.190 28.5204   1
   2  -1  -3 298.887 28.5400   1
   1   1   3 287.688 28.5229   1
   1  -2   3 256.964 28.5210   1
   2  -1  -3 269.248 28.5218   1
   1  -2   3 328.821 28.5828   1
   1   1  -3 306.192 28.5250   1
   1   1   3 321.234 28.5197   1
  -1  -1  -3 308.050 28.5147   1
   2  -2   3 573.316 56.6668   1
   2  -2  -3 650.937 56.6803   1
   0  -2  -3 610.533 56.6693   1
   2   0  -3 570.227 56.6917   1
  -2   0  -3 566.715 56.6790   1
  -2   2   3 618.580 56.6745   1
  -2   2  -3 571.888 56.6549   1
   0  -2   3 592.218 56.6655   1
  -2   2  -3 540.928 56.6637   1
   0  -2  -3 587.744 56.6775   1
   0   2  -3 651.157 56.6626   1
  -2   2   3 562.919 56.6764   1
  -2   0  -3 576.563 56.6943   1
   2   0   3 572.351 56.6825   1
   2   0   3 560.846 56.6919   1
   0  -2   3 623.524 56.6601   1
   2   0  -3 585.573 56.6817   1
   0   2  -3 594.240 56.6630   1
   2  -2  -3 623.445 56.6891   1
   2  -2   3 566.319 56.6556   1
   2   1  -3 11.6105 1.27456   1
   3  -2  -3 12.6331 1.28438   1
   2   1  -3 12.8744 1.30087   1
  -3   2  -3 13.6519 1.27683   1
  -2   3   3 14.3088 1.29493   1
  -1  -2   3 12.7954 1.27170   1
  -3   1   3 14.4099 1.29910   1
   1   2   3 14.4752 1.28029   1
  -3   1   3 16.8833 1.32655   1
   3  -1   3 12.5209 1.28685   1
  -2   3   3 12.6735 1.29415   1
  -1   3  -3 12.2095 1.25298   1
   1   2   3 13.0101 1.28985   1
   1  -3  -3 12.0928 1.32977   1
   1  -3  -3 12.8534 1.29970   1
  -3   2  -3 12.5514 1.28718   1
  -2  -1  -3 13.0781 1.28459   1
  -1   3  -3 9.80543 1.28843   1
   2  -3   3 11.9322 1.26986   1
  -1   3   3 13.0218 1.29635   1
   2   1   3 13.0706 1.28798   1
  -2   3  -3 11.7119 1.25861   1
  -3   1  -3 12.3459 1.29753   1
   1  -3   3 12.8148 1.25665   1
  -1   3   3 10.6914 1.33092   1
  -1  -2  -3 12.8542 1.28769   1
   1  -3   3 9.62371 1.28341   1
   2   1   3 12.9225 1.29913   1
  -1  -2  -3 13.8319 1.27588   1
   2  -3  -3 13.5171 1.29321   1
  -3   1  -3 12.6783 1.28598   1
   3  -2   3 13.6038 1.27915   1
   3  -1  -3 13.0856 1.28916   1
   3  -2   3 12.5945 1.28872   1
  -3   2   3 12.1344 1.27783   1
   2  -3  -3 11.7644 1.29967   1
   1   2  -3 12.8165 1.27115   1
   0  -3  -3 203.616 20.5119   1
   3   0   3 217.989 20.5698   1
  -3   0   3 232.127 20.5834   1
   3   0  -3 206.836 20.5652   1
   3   0   3 203.612 20.5423   1
  -3   3   3 214.274 20.5369   1
  -3   0  -3 206.533 20.5415   1
   0  -3  -3 211.810 20.5234   1
  -3   0   3 219.795 20.5597   1
  -3   3   3 212.616 20.5214   1
   3  -3   3 217.828 20.5217   1
   3  -3   3 198.039 20.5039   1
   3   0  -3 213.778 20.5452   1
   3   0  -3 226.248 20.5614   1
   0   3  -3 215.225 20.5130   1
   0  -3   3 224.914 20.5165   1
   0   3  -3 228.774 20.5079   1
  -3   0  -3 213.951 20.5690   1
   0  -3   3 229.576 20.5093   1
  -3   3  -3 205.613 20.5155   1
  -3   3  -3 185.592 20.4981   1
  -3   3   3 207.919 20.5268   1
   3  -3  -3 208.090 20.5979   1
   2   2   3 104.448 10.0377   1
  -4   2   3 108.120 10.0534   1
   2  -4  -3 106.673 10.0514   1
  -2  -2  -3 102.722 10.0337   1
   2  -4  -3 84.5708 10.0843   1
   4  -2   3 110.480 10.0639   1
  -2  -2  -3 107.488 10.0586   1
  -4   2   3 111.823 10.0820   1
   2   2  -3 111.027 10.0459   1
  -2   4   3 78.4874 10.0345   1
  -2   4   3 104.459 10.0387   1
   4  -2   3 103.882 10.0395   1
  -4   2  -3 110.017 10.0599   1
   2   2  -3 102.167 10.0298   1
   2   2   3 107.415 10.0600   1
  -4   2  -3 107.019 10.0411   1
   1  -4  -3 6.89720 0.69098   1
  -3  -1  -3 5.70837 0.72594   1
  -4   1   3 7.77061 0.76575   1
  -3   4   3 6.47524 0.68998   1
  -4   1   3 6.14255 0.72956   1
  -4   3  -3 5.88753 0.69137   1
   4  -1   3 6.83554 0.74681   1
  -1  -3   3 6.19373 0.70261   1
   1   3   3 5.56521 0.70050   1
   4  -1   3 8.10895 0.74195   1
  -3   4   3 6.51865 0.69679   1
   3  -4   3 6.06394 0.67125   1
   3   1  -3 5.91773 0.73223   1
   3   1  -3 6.20769 0.71718   1
  -3  -1  -3 7.42671 0.72415   1
   3  -4   3 7.02219 0.66925   1
  -4   3  -3 7.20894 0.71269   1
  -1  -3   3 9.02833 0.71336   1
   1   3  -3 6.75830 0.68552   1
  -3   4  -3 5.56882 0.66818   1
   4  -1  -3 6.06339 0.72463   1
   4  -3   3 5.50255 0.68886   1
  -1   4   3 7.08520 0.77275   1
   3  -4  -3 6.46580 0.74721   1
   1   3  -3 5.72519 0.69745   1
   3   1   3 7.39349 0.72759   1
   4  -1  -3 7.02246 0.75121   1
  -1  -3  -3 5.74488 0.70546   1
  -3   4  -3 6.53151 0.66419   1
  -4   3   3 6.32792 0.72503   1
   4  -1  -3 5.99200 0.72490   1
  -3  -1   3 5.94296 0.73353   1
   3   1   3 6.16276 0.73307   1
  -4   1  -3 6.36279 0.73690   1
  -4   1  -3 8.02319 0.73680   1
  -1   4   3 8.07111 0.69716   1
   4  -3   3 7.15225 0.71332   1
   3  -4  -3 6.73793 0.73055   1
  -4   4  -3 366.118 34.5144   1
  -4   4   3 356.662 34.5333   1
   0  -4   3 360.354 34.4935   1
   0  -4  -3 352.643 34.5078   1
   0  -4  -3 367.947 34.5182   1
   0  -4   3 369.305 34.5019   1
   4   0  -3 329.214 34.5555   1
   4   0   3 363.343 34.5868   1
  -4   0  -3 345.903 34.5775   1
  -4   4   3 381.080 34.5249   1
  -4   0  -3 357.403 34.5617   1
  -4   0   3 343.539 34.5612   1
  -4   0   3 358.903 34.5917   1
   4   0   3 360.784 34.5685   1
  -4   4  -3 346.091 34.4979   1
   4  -4   3 354.528 34.5023   1
   4   0  -3 346.627 34.5821   1
   4  -4   3 384.501 34.5218   1
   0   4  -3 365.183 34.4918   1
   0   4  -3 368.752 34.5018   1
  -5   3  -3 4.00103 0.46930   1
   3   2  -3 4.05068 0.48048   1
  -5   2   3 5.22542 0.52681   1
  -3  -2  -3 3.39833 0.45182   1
   2  -5  -3 5.05375 0.45819   1
  -5   2   3 3.75249 0.47862   1
  -5   3  -3 3.37340 0.44444   1
  -3   5   3 2.43183 0.46490   1
  -3  -2  -3 3.62057 0.47835   1
   5  -2   3 4.16198 0.49462   1
   2   3   3 3.24127 0.45577   1
  -3   5   3 3.11886 0.41464   1
  -2   5   3 4.48194 0.45894   1
  -3  -2   3 4.48738 0.49589   1
  -5   3   3 4.57302 0.47540   1
   5  -3   3 3.39614 0.44769   1
  -5   2  -3 4.34397 0.49208   1
   3   2   3 3.18119 0.44862   1
   3  -5  -3 2.99856 0.52258   1
   2   3  -3 3.14508 0.50621   1
   5  -3   3 4.25549 0.47748   1
   3   2   3 3.83571 0.48585   1
  -2  -3  -3 4.01933 0.47061   1
  -5   2  -3 4.79699 0.47968   1
   2   3  -3 4.50547 0.46557   1
  -5   3   3 3.27445 0.47487   1
   3  -5  -3 3.30823 0.42397   1
   1   4   3 101.436 9.91598   1
  -5   4  -3 98.5239 9.91102   1
   4   1  -3 99.7728 9.98149   1
  -4   5   3 106.834 9.91503   1
   5  -1   3 99.3222 9.96277   1
   1  -5  -3 102.797 9.89959   1
  -5   1   3 97.7989 9.99272   1
  -4  -1  -3 101.391 9.98822   1
  -5   1   3 99.6608 9.96880   1
   1   4   3 107.435 9.94005   1
   4  -5   3 96.2256 9.88899   1
  -4   5   3 97.3641 9.91238   1
  -5   4  -3 109.204 9.96077   1
   4  -5   3 96.8509 9.87706   1
   4   1  -3 103.627 9.96981   1
   5  -1   3 110.587 10.0097   1
  -4  -1  -3 104.331 9.96362   1
  -5   4   3 105.258 9.96055   1
  -4   5  -3 92.4267 9.88490   1
  -4   5  -3 94.1915 9.87418   1
   4  -5  -3 116.449 9.93752   1
   4  -5  -3 98.4926 9.91719   1
   4   1   3 106.723 9.97114   1
   4   1   3 108.588 10.0058   1
   1   4  -3 102.829 9.91836   1
  -4  -1   3 104.254 9.99504   1
  -1  -4  -3 98.1993 9.90999   1
   5  -4   3 100.593 9.91612   1
  -5   4   3 101.228 9.92991   1
   1   4  -3 97.5981 9.89813   1
  -5   1  -3 97.9190 9.95457   1
  -1  -4  -3 109.222 9.94415   1
   5  -4   3 110.767 9.95111   1
  -5   1  -3 109.153 9.99869   1
   0  -5  -3 2.21721 0.32022   1
   0   5   3 2.57378 0.32288   1
   5  -5   3 2.59326 0.31759   1
   0   5  -3 1.70701 0.29167   1
   5  -5  -3 2.23440 0.36584   1
  -5   5  -3 2.53662 0.31025   1
   0   5   3 2.29213 0.32095   1
   5  -5  -3 3.21513 0.36126   1
  -5   5   3 3.49647 0.36654   1
  -5   0  -3 2.80036 0.39962   1
   5  -5   3 3.01474 0.33135   1
   0  -5  -3 3.06645 0.33687   1
   0   5  -3 2.36979 0.30416   1
  -5   5   3 2.77400 0.35942   1
  -5   5  -3 2.89260 0.32860   1
   5   0   3 2.76475 0.39899   1
  -3  -3   3 72.0837 7.15591   1
   3   3   3 76.7323 7.17687   1
  -3  -3  -3 76.3411 7.17134   1
  -6   3   3 75.4700 7.16417   1
  -6   3  -3 72.7389 7.14009   1
   6  -3   3 77.3606 7.18149   1
  -3  -3  -3 69.4261 7.12567   1
  -6   3  -3 75.3157 7.17134   1
   3   3  -3 71.8422 7.15257   1
   3   3   3 71.1913 7.13329   1
  -3  -3   3 72.6772 7.13644   1
   6  -3   3 74.5311 7.14784   1
  -6   3   3 71.3451 7.18245   1
   3   3  -3 67.8826 7.12989   1
  -2  -4   3 244.716 24.4488   1
  -4  -2  -3 252.458 24.5102   1
  -6   4  -3 249.098 24.4602   1
  -2  -4   3 234.456 24.4362   1
   2   4   3 269.996 24.4798   1
   2   4   3 233.254 24.4265   1
  -6   4  -3 250.307 24.4502   1
   2   4  -3 268.936 24.4515   1
  -6   2  -3 259.118 24.5228   1
   6  -4   3 265.716 24.4816   1
  -6   4   3 246.723 24.4910   1
  -4  -2   3 250.879 24.5162   1
  -2  -4  -3 266.727 24.4738   1
   2   4  -3 258.849 24.4347   1
   2   4  -3 240.370 24.4418   1
  -2  -4  -3 248.419 24.4376   1
  -6   4   3 235.790 24.4560   1
   6  -4   3 268.520 24.4650   1
   4   2   3 273.993 24.5346   1
  -2   6   3 247.634 24.3909   1
  -4  -2   3 260.429 24.4909   1
   1   5   3 1.53904 0.22004   1
  -6   5  -3 1.24210 0.19901   1
   1   5   3 1.46249 0.19951   1
   6  -5  -3 0.92628 0.20247   1
  -6   5  -3 1.18928 0.20573   1
   6  -5  -3 1.58131 0.24414   1
  -1  -5  -3 1.25565 0.21080   1
  -1  -5  -3 1.04898 0.19235   1
  -5   6  -3 1.34188 0.17548   1
  -6   5   3 0.75050 0.18104   1
  -6   5   3 1.28598 0.22596   1
  -1   6   3 1.08370 0.18129   1
   6  -5   3 1.27486 0.20280   1
   6  -5   3 0.96979 0.19495   1
  -5   6  -3 1.33981 0.16618   1
   0   0  -4 9999.99 894.625   1
   0   0   4 9467.56 894.664   1
   0   0   4 8012.81 894.592   1
   0   0  -4 9798.21 894.643   1
   1   0  -4 40.1095 3.80153   1
   0  -1  -4 45.3909 3.83428   1
  -1   0  -4 39.9863 3.79136   1
   1   0   4 38.9596 3.77131   1
  -1   0  -4 43.6979 3.77469   1
   1   0   4 40.3406 3.79506   1
   0  -1   4 37.4128 3.82601   1
  -1   1   4 39.1446 3.79207   1
   0   1  -4 38.6285 3.83002   1
   0   1  -4 31.9887 3.78879   1
   0   1   4 34.7856 4.09832   1
   0  -1   4 35.0662 3.78794   1
  -2   1  -4 4459.56 365.434   1
   1  -2  -4 3366.95 365.462   1
   1   1  -4 3999.70 365.410   1
   1   1  -4 3899.62 365.422   1
  -1  -1   4 3444.86 365.420   1
   2  -1  -4 3897.71 365.448   1
  -1  -1   4 3843.09 365.465   1
  -1   2  -4 3711.43 365.422   1
  -2   1  -4 4019.09 365.437   1
  -2   1   4 3964.35 365.430   1
   2  -1  -4 4162.98 365.438   1
   1  -2   4 3646.74 365.409   1
   1   1   4 3881.57 365.429   1
   1   1   4 3848.01 365.472   1
  -1   2   4 2695.66 365.422   1
  -1  -1  -4 4169.33 365.429   1
   2  -1   4 3012.95 365.395   1
  -2   1   4 4099.94 365.454   1
   2  -1   4 4200.37 365.425   1
   2  -2  -4 533.497 46.9172   1
   2  -2   4 490.538 46.8658   1
   0   2  -4 477.981 46.8775   1
   0  -2  -4 453.086 46.8937   1
   2  -2   4 503.188 46.8836   1
   2   0  -4 525.486 46.8882   1
   0  -2  -4 458.744 46.8788   1
  -2   2  -4 472.049 46.8595   1
   0   2  -4 492.572 46.8715   1
   2   0  -4 481.232 46.9031   1
  -2   2  -4 469.561 46.8758   1
  -2   2   4 484.751 46.8806   1
  -2   0  -4 477.924 46.9012   1
   0   2   4 450.039 46.9014   1
  -2   0  -4 473.939 46.8780   1
   0  -2   4 512.708 46.8845   1
   0  -2   4 531.672 46.8781   1
  -2   0   4 515.581 46.8868   1
  -2   0   4 438.794 46.8883   1
   2   0   4 500.301 46.8850   1
   2   0   4 481.129 46.9024   1
   0   2   4 469.782 46.9069   1
  -2   2   4 483.095 46.9006   1
   2  -2  -4 530.447 46.8958   1
  -2  -1  -4 32.2809 3.20989   1
   2  -3   4 32.0697 3.19331   1
   1  -3  -4 33.6454 3.28660   1
  -1   3  -4 31.5015 3.21291   1
  -3   1   4 41.9022 3.25637   1
   2   1  -4 29.6762 3.22741   1
  -3   1   4 37.4888 3.22845   1
   2   1  -4 30.9759 3.21070   1
  -2   3   4 24.8030 3.22260   1
  -3   2  -4 37.5647 3.23148   1
   1  -3  -4 30.4826 3.27778   1
   2  -3   4 28.4035 3.22460   1
   3  -1   4 35.0762 3.21647   1
   1  -3   4 31.6443 3.24907   1
  -1   3   4 27.6370 3.26923   1
   2   1   4 34.3837 3.21678   1
  -1  -2  -4 40.4451 3.21614   1
  -3   2   4 31.4312 3.21115   1
  -3   2   4 30.4597 3.22030   1
  -2  -1   4 28.3193 3.24030   1
   3  -1  -4 43.2909 3.26759   1
  -3   1  -4 34.2161 3.21359   1
  -2  -1   4 30.7082 3.21812   1
  -2   3  -4 31.5607 3.22410   1
  -3   1  -4 30.8825 3.23287   1
   2  -3  -4 28.2427 3.35370   1
   1  -3   4 31.6443 3.24907   1
  -1  -2  -4 44.4865 3.25217   1
   1  -3   4 31.8289 3.21609   1
  -2   3  -4 31.1352 3.19318   1
  -1   3   4 28.5792 3.25258   1
  -3   3  -4 3823.89 343.855   1
   3  -3   4 3730.75 343.854   1
   3  -3   4 3163.88 343.851   1
   3   0  -4 3618.65 343.945   1
   3   0  -4 3255.80 343.941   1
   0   3   4 3429.61 343.885   1
   0  -3   4 3806.99 343.846   1
   0   3  -4 3848.92 343.844   1
   0   3  -4 3574.89 343.852   1
   3   0   4 3526.69 343.943   1
  -3   3   4 3568.22 343.898   1
  -3   0  -4 3650.11 343.949   1
   3   0   4 3381.01 343.957   1
   0   3   4 3883.47 343.907   1
  -3   0   4 3068.99 343.924   1
  -3   0  -4 3527.19 343.970   1
  -3   3   4 3876.83 343.902   1
   0  -3  -4 4679.91 343.943   1
  -3   3  -4 3186.12 343.850   1
   0  -3   4 3511.63 343.848   1
   0  -3  -4 3269.68 343.873   1
  -3   0   4 3421.15 343.936   1
  -4   2   4 3915.05 425.563   1
  -2  -2   4 4638.24 425.659   1
   4  -2   4 4596.70 425.574   1
  -2  -2  -4 4318.74 425.580   1
  -2  -2  -4 4561.28 425.566   1
   2   2  -4 4369.57 425.567   1
   2  -4   4 3812.92 425.444   1
   2   2   4 4297.31 425.580   1
  -4   2   4 4792.92 425.621   1
  -4   2  -4 4607.26 425.569   1
   2   2  -4 4617.64 425.546   1
  -2   4  -4 2737.55 425.387   1
  -2   4   4 4689.46 425.559   1
   4  -2   4 4477.34 425.594   1
  -2   4   4 5071.17 425.557   1
   2  -4  -4 4931.51 425.700   1
   2  -4   4 3705.66 425.402   1
  -4   2  -4 4589.55 425.602   1
  -2   4  -4 4663.17 425.419   1
   2   2   4 4617.96 425.574   1
   2  -4  -4 4797.88 425.569   1
  -2   4  -4 4700.92 425.453   1
  -4   1   4 27.1465 2.37867   1
  -3   4   4 27.1371 2.33796   1
   3   1  -4 19.0529 2.35835   1
   4  -1   4 23.3210 2.35335   1
   3   1  -4 22.9797 2.34466   1
  -1   4  -4 21.7667 2.36534   1
  -4   1   4 25.5781 2.40307   1
  -4   3  -4 22.9826 2.34852   1
  -1   4  -4 27.5700 2.31338   1
   3  -4   4 21.9683 2.30963   1
   1   3  -4 23.0289 2.31832   1
  -3   4  -4 23.3835 2.30539   1
  -1  -3  -4 20.4010 2.31949   1
   4  -3   4 28.4960 2.33512   1
  -3  -1   4 21.4693 2.37887   1
  -1   4   4 17.8130 2.38085   1
   4  -3   4 22.9220 2.34954   1
  -4   3   4 22.3714 2.36125   1
   1  -4   4 26.0652 2.30665   1
  -4   1  -4 21.5575 2.34340   1
  -1   4   4 30.5957 2.35864   1
  -3   4  -4 20.9610 2.30716   1
   4  -4   4 242.048 24.9276   1
   4   0   4 274.834 25.0298   1
   4  -4   4 257.709 24.9491   1
  -4   4  -4 260.703 24.9480   1
   0   4  -4 257.147 24.9416   1
   4   0   4 267.107 24.9948   1
  -4   4   4 255.156 24.9706   1
   0  -4   4 271.110 24.9458   1
  -4   0   4 277.959 25.0416   1
  -4   4  -4 254.153 24.9254   1
   0  -4  -4 252.822 24.9538   1
   0   4  -4 275.543 24.9312   1
   0  -4   4 260.740 24.9317   1
  -4   0   4 282.917 25.0096   1
  -4   4   4 278.287 24.9636   1
  -4   0  -4 260.083 24.9884   1
   0  -4  -4 245.378 24.9413   1
  -4   0  -4 255.301 25.0163   1
   4   0  -4 195.317 25.0177   1
   3   2  -4 16.7849 2.09682   1
  -5   3  -4 22.3048 2.10945   1
   5  -2   4 19.5058 2.09246   1
   2  -5  -4 17.0083 2.09786   1
  -3   5   4 20.8376 2.15740   1
   3   2  -4 24.0217 2.09156   1
  -5   2   4 20.8059 2.13966   1
   5  -3  -4 16.4507 2.16023   1
   5  -2   4 21.6335 2.13311   1
   5  -3  -4 18.5822 2.16986   1
  -5   2   4 20.2315 2.10864   1
  -5   3  -4 20.1695 2.07567   1
  -3   5   4 17.9424 2.06441   1
  -2  -3   4 18.7625 2.09532   1
  -3  -2  -4 22.3203 2.09573   1
  -3  -2  -4 23.6259 2.14146   1
   5  -3   4 20.7954 2.08267   1
  -3  -2   4 17.1489 2.10697   1
   3  -5  -4 20.0925 2.08192   1
  -5   2  -4 22.6463 2.13441   1
   2   3  -4 22.4111 2.07446   1
  -5   3   4 16.8999 2.10698   1
   3   2   4 24.3872 2.14503   1
   5  -2  -4 24.0005 2.13532   1
  -5   3   4 20.3486 2.09529   1
   3   2   4 25.5295 2.11458   1
   5  -3   4 22.1069 2.11432   1
   2   3  -4 18.6244 2.08836   1
  -2   5   4 21.7871 2.12582   1
   3  -5  -4 25.4782 2.28307   1
   5  -2  -4 21.4067 2.14496   1
  -5   2  -4 20.0010 2.09044   1
   4  -5   4 2544.15 245.939   1
   1   4   4 2639.37 246.008   1
   1  -5  -4 2518.84 245.972   1
  -5   1   4 2376.58 246.133   1
  -4  -1  -4 2728.40 246.125   1
  -5   1   4 2502.84 246.122   1
  -5   4  -4 2505.12 245.993   1
  -4   5   4 2506.20 245.974   1
  -5   4  -4 2704.54 246.036   1
   5  -1   4 2581.83 246.110   1
  -4  -1  -4 2589.77 246.148   1
   4  -5   4 2800.96 245.939   1
  -4   5   4 2752.47 246.081   1
   5  -1   4 2326.56 246.110   1
   1   4   4 2700.28 246.052   1
  -1  -4   4 2391.70 245.969   1
   5  -1  -4 2691.89 246.165   1
  -5   4   4 2532.51 246.031   1
   4  -5  -4 2231.07 245.987   1
  -4  -1   4 2468.80 246.124   1
   5  -4   4 2786.58 246.052   1
   4   1   4 2747.03 246.133   1
  -5   1  -4 2624.52 246.108   1
   1   4  -4 2747.59 245.983   1
  -5   1  -4 2329.31 246.106   1
  -4   5  -4 2476.49 245.934   1
  -5   4   4 2435.46 246.066   1
  -4   5  -4 2529.58 245.925   1
   5  -4   4 2330.84 245.986   1
  -1  -4  -4 2655.01 246.045   1
   4   1   4 2792.70 246.182   1
   5  -1  -4 2219.09 246.105   1
  -1  -4  -4 2775.42 246.021   1
  -5   5   4 16.4559 1.83833   1
   0   5  -4 21.1629 1.82162   1
   0  -5  -4 17.9478 1.83059   1
   0   5   4 18.7110 1.84779   1
   5   0  -4 20.3813 1.92065   1
   5  -5   4 19.6649 1.84182   1
   0  -5  -4 19.6439 1.85118   1
  -5   0  -4 12.2045 1.87882   1
   5  -5  -4 11.8313 1.88481   1
  -5   5  -4 22.0765 1.93661   1
  -5   5   4 16.5632 1.86439   1
  -5   0   4 20.1109 1.91420   1
  -5   5  -4 19.7139 1.83786   1
   0   5  -4 19.3303 1.81372   1
   5  -5   4 18.0782 1.83057   1
   5   0  -4 18.6986 1.91268   1
   3   3   4 2306.19 220.441   1
  -6   3   4 2237.90 220.474   1
   6  -3   4 2357.94 220.460   1
  -6   3  -4 2220.10 220.473   1
  -6   3  -4 2329.46 220.449   1
   3   3   4 2386.75 220.499   1
  -3  -3  -4 2291.86 220.436   1
   6  -3   4 2276.96 220.488   1
  -3  -3  -4 2462.54 220.509   1
  -3  -3   4 2154.45 220.443   1
   6  -3  -4 2392.34 220.599   1
  -3  -3   4 2121.19 220.409   1
  -4   6   4 174.700 14.9581   1
   2   4   4 147.080 14.9363   1
   4   2  -4 143.647 15.0058   1
   4   2  -4 158.608 15.0137   1
  -6   4  -4 164.820 14.9573   1
   2   4   4 168.077 14.9951   1
  -6   4  -4 163.267 14.9852   1
  -2  -4   4 153.978 14.9434   1
  -2  -4   4 162.298 14.9760   1
  -2   6   4 136.014 14.9201   1
   6  -4   4 172.288 15.0007   1
  -6   4   4 154.312 15.0210   1
  -6   4   4 160.632 14.9728   1
  -4  -2   4 152.002 14.9875   1
  -2   6   4 97.6628 14.9283   1
  -2  -4  -4 144.912 14.9332   1
   6  -4   4 165.661 14.9619   1
  -2  -4  -4 164.541 14.9875   1
  -5   6   4 15.3366 1.84910   1
   6  -5  -4 18.3405 1.87825   1
  -6   5  -4 14.5720 1.83524   1
  -6   5  -4 21.8900 1.89465   1
  -5   6   4 15.2788 1.87085   1
   6  -5  -4 19.2970 1.92005   1
  -5   6  -4 17.7698 1.83120   1
  -1   6   4 21.5213 1.85325   1
   6  -5   4 23.7700 1.91290   1
  -6   5   4 17.5473 1.90660   1
  -6   5   4 20.7092 1.88286   1
  -1  -5  -4 15.3833 1.86323   1
   6  -5   4 15.1218 1.84158   1
  -5   6  -4 21.5926 1.81646   1
   0   0  -5 1932.90 185.687   1
   0   1  -5 183.990 18.6642   1
   0   1   5 192.378 18.6699   1
  -1   1  -5 199.286 18.6285   1
   0  -1   5 192.008 18.7171   1
   1  -1  -5 157.195 18.6648   1
   1  -1  -5 191.874 18.6324   1
  -1   1   5 180.620 18.6052   1
   1   0  -5 215.683 18.6483   1
  -1   1   5 152.231 18.6431   1
   1   0   5 206.202 18.6226   1
   0   1  -5 204.724 18.6577   1
  -1   0   5 205.452 18.6421   1
   0  -1  -5 207.332 18.6883   1
   1   0   5 225.795 18.6834   1
   0   1   5 189.092 18.6734   1
  -1   0   5 193.673 18.5753   1
   1  -1   5 189.548 18.6394   1
  -1   1  -5 206.618 18.6275   1
   1   0  -5 192.941 18.5770   1
  -1   0  -5 220.349 18.6333   1
   0  -1  -5 196.152 18.6563   1
  -1   0  -5 197.997 18.5743   1
   0  -1   5 144.282 18.6931   1
   1  -1   5 185.514 18.6228   1
  -2   1   5 35.8902 3.57891   1
   2  -1  -5 34.6400 3.61523   1
   2  -1  -5 33.2032 3.57902   1
  -2   1   5 35.6008 3.60723   1
   1  -2  -5 40.4789 3.70540   1
  -2   1  -5 38.5517 3.57141   1
  -1  -1  -5 35.0261 3.57502   1
   1   1  -5 36.2535 3.60415   1
  -1   2   5 40.0876 3.68885   1
   1   1  -5 32.2423 3.56427   1
   2  -1   5 40.2180 3.57936   1
  -2   1  -5 42.3150 3.60826   1
  -1  -1  -5 34.9416 3.60700   1
  -1   2  -5 23.8715 3.59686   1
   1  -2   5 42.1485 3.67448   1
  -1  -1   5 40.9034 3.62476   1
   2  -2   5 146.764 13.2936   1
  -2   2  -5 144.444 13.3025   1
  -2   0   5 134.716 13.3061   1
  -2   2   5 137.866 13.2907   1
   0  -2   5 140.875 13.3051   1
   0   2   5 129.168 13.3213   1
   2   0   5 140.974 13.2871   1
  -2   2   5 138.695 13.3414   1
   0   2  -5 132.351 13.2934   1
  -2   2  -5 139.262 13.2994   1
   2   0  -5 140.217 13.2903   1
  -2   0  -5 140.958 13.2846   1
   0   2  -5 139.893 13.3152   1
  -2   2  -5 148.070 13.2812   1
   0  -2   5 156.065 13.3428   1
   0  -2  -5 132.187 13.3263   1
   2   0   5 145.188 13.3224   1
  -2   0   5 141.216 13.2906   1
   2   0  -5 141.276 13.3184   1
   2  -2  -5 90.6161 13.3349   1
   0  -2  -5 124.428 13.2980   1
  -2   0  -5 137.004 13.3140   1
   2  -2   5 151.024 13.3055   1
   0   2   5 132.871 13.3364   1
  -3   2  -5 146.722 14.3163   1
   1  -3  -5 132.574 14.4519   1
  -2  -1  -5 147.415 14.3319   1
  -2   3   5 134.313 14.3598   1
   2   1  -5 154.283 14.3392   1
  -2  -1  -5 147.814 14.3019   1
  -2   3   5 127.420 14.3484   1
   2  -3   5 155.840 14.3092   1
  -3   1   5 148.233 14.3429   1
   3  -1   5 152.226 14.3053   1
  -3   1   5 156.075 14.3118   1
   2  -3   5 145.203 14.3681   1
   2   1  -5 152.593 14.3061   1
   1  -3  -5 165.969 14.4336   1
  -1   3  -5 125.152 14.3114   1
  -3   1   5 144.142 14.3267   1
   2   1   5 150.080 14.3034   1
  -2  -1   5 158.019 14.3318   1
   1  -3   5 176.424 14.3584   1
   1  -3   5 129.794 14.3331   1
  -3   2   5 157.103 14.3232   1
  -1  -2  -5 158.898 14.3024   1
  -3   2   5 130.567 14.3072   1
  -1  -2  -5 138.167 14.3196   1
  -3   1  -5 141.754 14.2927   1
  -2   3  -5 141.963 14.2940   1
  -2  -1   5 157.081 14.3087   1
   3  -2   5 152.526 14.3204   1
   1   2  -5 160.372 14.2993   1
  -2  -1   5 153.924 14.3404   1
   2   1   5 148.715 14.3348   1
  -2   3  -5 146.542 14.3485   1
  -1   3   5 129.210 14.3619   1
  -1   3   5 164.669 14.4050   1
   1   2  -5 150.021 14.3146   1
  -3   1  -5 155.025 14.3411   1
   0  -3   5 32.5812 3.17848   1
  -3   3  -5 33.9012 3.18394   1
   3  -3   5 33.2381 3.16216   1
   0  -3  -5 30.3126 3.16758   1
   3  -3   5 35.3522 3.19010   1
  -3   3   5 34.7599 3.21384   1
   3   0  -5 34.6617 3.26411   1
  -3   0  -5 31.9988 3.18232   1
   0   3  -5 31.9970 3.16279   1
   3   0  -5 26.1491 3.20350   1
   0   3   5 30.2399 3.20516   1
   0   3   5 30.4455 3.19953   1
  -3   0   5 34.6820 3.19889   1
   0   3  -5 33.7726 3.17996   1
   3   0   5 34.4741 3.19122   1
  -3   3   5 33.6719 3.18073   1
  -3   0  -5 32.0212 3.21462   1
   0  -3  -5 30.7336 3.19933   1
   0  -3   5 30.9828 3.16694   1
   3   0   5 30.9928 3.21226   1
  -3   3  -5 32.1354 3.15417   1
  -2  -2  -5 600.989 56.1005   1
  -2   4  -5 559.589 56.0223   1
  -2   4  -5 573.022 56.0727   1
  -2   4   5 691.602 56.1500   1
  -4   2  -5 636.691 56.1089   1
  -4   2  -5 582.869 56.0509   1
   4  -2   5 616.199 56.1119   1
  -2  -2  -5 550.771 56.0443   1
  -2  -2   5 645.238 56.0644   1
  -4   2   5 575.084 56.1017   1
   2  -4   5 369.469 56.0416   1
   2   2   5 608.918 56.0619   1
   4  -2   5 612.692 56.0608   1
   2   2  -5 637.025 56.0613   1
   2   2   5 597.129 56.1017   1
   2  -4   5 460.650 56.0117   1
   2   2  -5 658.883 56.1017   1
  -2   4   5 428.273 56.0679   1
  -2  -2   5 659.989 56.1081   1
   4  -2  -5 564.250 56.1022   1
  -4   2   5 615.660 56.0752   1
  -4   1   5 101.259 9.95092   1
  -3   4   5 101.240 9.92604   1
   4  -1   5 95.6291 9.90095   1
  -1  -3   5 97.4430 9.96012   1
   3   1  -5 95.5688 9.96222   1
  -3  -1  -5 97.5630 9.89961   1
   4  -3  -5 99.8669 9.94775   1
   3  -4   5 93.0523 9.88597   1
  -1   4  -5 99.1835 9.87708   1
  -3   4   5 103.798 9.92845   1
  -4   3  -5 102.843 9.88256   1
   4  -1   5 107.363 9.96449   1
  -4   1   5 108.899 9.92695   1
   4  -3  -5 98.1115 9.91036   1
  -1   4  -5 127.292 9.98163   1
  -1  -3   5 102.008 9.89763   1
  -3  -1  -5 103.520 9.95102   1
   3  -4   5 109.544 9.88761   1
   3   1  -5 103.145 10.1162   1
   1  -4  -5 103.669 9.93532   1
   4  -1  -5 102.154 9.94822   1
   1   3  -5 104.407 9.88532   1
  -3   4  -5 98.9005 9.87720   1
   1   3  -5 105.472 9.92420   1
   3   1   5 102.931 9.91006   1
  -1   4   5 108.923 9.94687   1
   4  -1  -5 90.3063 9.95079   1
   3   1   5 104.426 9.94863   1
  -4   1  -5 107.100 9.95698   1
  -4   3   5 102.891 9.90304   1
  -1  -3  -5 103.536 9.92243   1
  -3  -1   5 104.706 9.96631   1
  -4   3   5 102.878 9.93998   1
   1  -4   5 90.9346 9.87489   1
   4  -3   5 105.270 9.89105   1
  -1  -3  -5 105.188 9.89149   1
   1  -4   5 96.5201 9.91901   1
  -3   4  -5 97.0554 9.87441   1
  -4   1  -5 104.022 9.90809   1
  -4   4  -5 94.1386 8.78678   1
   4  -4   5 82.7665 8.76770   1
   4  -4   5 97.8942 8.79700   1
   0   4   5 78.8273 8.81153   1
   4   0  -5 82.2463 8.93094   1
  -4   0   5 90.7135 8.86267   1
   0   4  -5 94.0703 8.78411   1
   0   4  -5 104.239 8.78128   1
  -4   4   5 83.4675 8.77228   1
   4  -4  -5 84.0537 8.83241   1
  -4   0   5 94.1625 8.81910   1
   4  -4  -5 73.5181 8.78099   1
  -4   0  -5 92.8037 8.81306   1
  -4   0  -5 97.3829 8.86485   1
   4   0   5 97.3183 8.82421   1
  -4   4   5 95.4281 8.81548   1
   0  -4  -5 92.4467 8.79182   1
   4   0   5 100.567 8.87206   1
  -4   4  -5 82.5312 8.75881   1
   4   0  -5 94.5510 8.96975   1
  -3   5   5 71.3074 7.03620   1
  -5   3  -5 79.2967 7.05212   1
   5  -3  -5 70.0492 7.06634   1
  -3  -2  -5 70.9271 7.00825   1
  -2  -3   5 73.2445 7.00580   1
   3  -5   5 49.9348 6.97830   1
  -2  -3   5 74.5320 7.05012   1
   5  -3  -5 67.9374 7.01638   1
  -5   2   5 80.6375 7.05110   1
   2  -5  -5 72.0643 7.05537   1
  -5   2   5 68.3822 7.07617   1
  -2   5  -5 64.1052 6.95943   1
   5  -2   5 72.3255 7.02165   1
   3  -5   5 77.7290 6.96951   1
   2   3   5 70.1288 6.99931   1
   2   3   5 78.8397 7.05275   1
  -2   5  -5 55.3441 6.94961   1
   5  -2   5 76.2246 7.07359   1
  -5   3  -5 75.1298 7.00304   1
   3  -5  -5 94.1457 7.29269   1
   3   2   5 76.1985 7.02004   1
   5  -2  -5 66.7178 7.06837   1
  -2  -3  -5 77.2127 7.05462   1
   5  -2  -5 71.2746 7.03357   1
   2   3  -5 70.1917 6.99483   1
   2   3  -5 65.3139 7.02313   1
  -2   5   5 70.1551 7.04040   1
  -3   5  -5 77.9764 7.00252   1
  -5   2  -5 72.7156 7.01802   1
   5  -3   5 80.6546 7.06052   1
  -3  -2   5 76.8123 7.07503   1
   2  -5   5 56.1336 6.95209   1
   3  -5  -5 63.7303 7.04216   1
  -5   2  -5 78.6746 7.07352   1
   5  -3   5 71.3913 6.99789   1
  -5   3   5 70.9313 7.01696   1
  -3   5  -5 72.8323 6.96324   1
  -2  -3  -5 68.2547 6.99369   1
  -3  -2   5 73.4317 7.01935   1
   3   2   5 78.5588 7.08133   1
  -5   3   5 71.5291 7.06710   1
   1   4   5 27.0283 2.79273   1
  -1   5  -5 24.8456 2.82617   1
   4   1  -5 24.2924 2.84951   1
  -1  -4   5 28.6268 2.81584   1
   1   4   5 28.8944 2.82530   1
   5  -1   5 28.7207 2.88088   1
   1  -5  -5 26.1995 2.85358   1
   4  -5   5 29.0143 2.78088   1
   4   1  -5 25.5667 2.81200   1
  -5   4  -5 29.7954 2.82118   1
  -5   4  -5 28.4583 2.77863   1
   5  -4  -5 26.5692 2.81948   1
   5  -4  -5 28.3574 2.85961   1
  -4  -1  -5 30.7009 2.88872   1
  -1  -4   5 29.9094 2.79033   1
  -4   5   5 25.6959 2.79699   1
  -5   1   5 30.2698 2.85149   1
  -1   5  -5 27.9258 2.76660   1
   1  -5  -5 24.6817 2.79557   1
   4  -5   5 25.9719 2.77122   1
  -4   5   5 27.5428 2.80999   1
  -4   5  -5 28.7809 2.77785   1
   5  -4   5 32.3178 2.79795   1
   1   4  -5 25.2156 2.79655   1
   5  -4   5 29.8554 2.82600   1
  -1   5   5 31.8742 3.18508   1
  -5   1  -5 28.3666 2.87632   1
  -4  -1   5 28.4155 2.88553   1
   1   4  -5 30.8161 2.79375   1
  -1   5   5 27.6169 2.89082   1
  -4   5  -5 26.3400 2.75912   1
  -1  -4  -5 29.3225 2.82834   1
   4   1   5 31.5709 2.89394   1
  -5   4   5 28.8993 2.81322   1
  -5   4   5 31.1273 2.85492   1
   5  -1  -5 26.8546 2.82437   1
  -1  -4  -5 27.9100 2.78865   1
  -5   5  -5 63.6677 5.79405   1
   5  -5   5 67.4606 5.80119   1
  -5   5  -5 62.2618 5.86094   1
   0   5  -5 55.1065 5.82189   1
  -5   5   5 58.3571 5.82695   1
  -5   5   5 55.4409 5.85652   1
   0   5   5 56.3588 5.84370   1
   0  -5  -5 59.5605 5.83003   1
   0   5  -5 62.2728 5.81026   1
   5  -5   5 58.7466 5.84520   1
   0  -5  -5 58.8274 5.83730   1
   0   5   5 58.5974 5.83775   1
  -6   3  -5 26.7052 2.70257   1
  -3  -3   5 26.5945 2.65490   1
  -3  -3  -5 28.2622 2.71137   1
   3   3   5 28.5402 2.71316   1
  -3   6   5 22.5852 2.73141   1
  -3  -3   5 26.3146 2.69933   1
   3   3  -5 26.9172 2.65043   1
   6  -3   5 29.3078 2.72951   1
   3   3  -5 22.9987 2.67242   1
   2   4   5 80.1271 7.15033   1
  -4   6   5 70.2355 7.09409   1
  -2  -4   5 63.4454 7.07611   1
  -6   4  -5 73.2417 7.08906   1
   2   4   5 63.5784 7.07437   1
   6  -4  -5 75.0936 7.18884   1
  -2  -4   5 82.9208 7.14256   1
  -6   4  -5 72.5915 7.12664   1
  -4   6   5 76.8050 7.35422   1
  -6   4   5 72.8596 7.10807   1
   6  -4   5 74.0752 7.09593   1
   6  -4   5 77.9184 7.14851   1
  -2  -4  -5 64.8532 7.07510   1
   2   4  -5 69.1128 7.07538   1
   2   4  -5 71.4831 7.11730   1
  -2  -4  -5 76.6019 7.14357   1
   0   0   6 128.253 12.4648   1
   0   0   6 105.289 12.4430   1
   0   0  -6 138.904 12.4998   1
   0   0  -6 139.898 12.4892   1
  -1   0  -6 1698.17 174.064   1
   0  -1  -6 1855.58 174.161   1
   0   1  -6 1816.07 174.159   1
   1  -1  -6 1170.61 174.101   1
  -1   0   6 2047.78 174.061   1
   1   0  -6 1913.97 174.054   1
  -1   1   6 1789.58 174.092   1
   1  -1  -6 1747.26 174.152   1
   1   0  -6 2322.59 174.235   1
  -1   1   6 1250.03 174.077   1
   0   1  -6 2086.47 174.143   1
  -1   1  -6 1990.22 174.134   1
  -1   1  -6 1814.44 174.094   1
  -1   0  -6 1889.22 174.042   1
   0  -1  -6 1896.95 174.147   1
   0   1   6 1738.47 174.135   1
   0  -1   6 1541.22 174.151   1
  -1   0   6 2051.69 174.167   1
  -1   2   6 1048.44 92.6289   1
  -1  -1  -6 932.073 92.5803   1
  -1  -1   6 972.948 92.5611   1
   1  -2  -6 1032.57 92.9165   1
  -1  -1  -6 950.408 92.5038   1
   1  -2   6 868.385 92.6202   1
   1   1   6 828.963 92.5093   1
   1   1   6 936.489 92.6317   1
  -1  -1   6 1067.79 92.5224   1
  -2   1  -6 920.730 92.5363   1
  -2   1  -6 870.060 92.4805   1
   1   1  -6 1098.23 92.5289   1
   1   1  -6 946.381 92.5519   1
   2  -1   6 908.718 92.5007   1
  -2   1   6 942.203 92.5705   1
  -1   2  -6 1082.26 92.5984   1
   2  -2   6 3883.32 331.387   1
  -2   0   6 3591.39 331.352   1
   2   0   6 3188.11 331.404   1
  -2   2  -6 3503.23 331.312   1
  -2   0  -6 3988.21 331.386   1
  -2   2  -6 3496.76 331.349   1
   2   0   6 3637.39 331.390   1
   2  -2   6 3452.88 331.328   1
  -2   0  -6 3247.29 331.367   1
   0   2   6 3232.03 331.377   1
   0   2   6 3517.27 331.435   1
   2   0  -6 2776.60 331.337   1
   0  -2  -6 3412.97 331.399   1
  -2   0   6 3341.78 331.381   1
  -2   2   6 3476.52 331.358   1
   0  -2  -6 3464.02 331.430   1
   2   0  -6 3482.29 331.359   1
   0   2  -6 3381.06 331.345   1
   0   2  -6 3641.69 331.390   1
  -2   2   6 3301.58 331.398   1
   2   1  -6 1666.65 161.881   1
  -3   1   6 1595.70 161.871   1
  -2   3   6 1310.57 161.886   1
  -3   2  -6 1713.82 161.818   1
  -1  -2   6 1777.81 161.822   1
  -2   3   6 1557.60 162.002   1
  -3   2  -6 1705.91 161.866   1
   2  -3   6 1864.34 161.924   1
   2   1  -6 1614.65 161.833   1
  -1   3  -6 1526.17 161.868   1
  -2  -1  -6 1851.19 161.916   1
   3  -2  -6 1638.25 161.900   1
  -1  -2   6 1786.68 161.865   1
  -3   1   6 1708.70 161.856   1
  -2  -1  -6 1681.12 161.839   1
   3  -1   6 1669.36 161.837   1
   1   2   6 1822.00 161.908   1
   1   2   6 1649.15 161.847   1
   2  -3   6 1542.79 161.827   1
   1   2  -6 1689.54 161.854   1
  -2  -1   6 1627.38 161.834   1
  -1   3   6 1642.94 161.954   1
   3  -2   6 1718.48 161.826   1
  -1  -2  -6 1649.18 161.826   1
  -3   2   6 1695.91 161.840   1
  -3   2   6 1773.73 161.905   1
  -1   3   6 1948.39 161.944   1
   1   2  -6 1740.32 161.819   1
  -1  -2  -6 1641.13 161.878   1
   3  -2   6 1780.20 161.877   1
  -2   3  -6 1894.16 161.912   1
  -3   1  -6 1641.26 161.880   1
  -2   3  -6 1679.73 161.836   1
   3  -1  -6 1265.31 161.848   1
  -2  -1   6 1596.07 161.857   1
   3  -1  -6 1646.37 161.870   1
  -3   1  -6 1712.94 161.839   1
   1  -3   6 2005.24 161.908   1
  -3   0  -6 667.298 68.8996   1
  -3   0   6 791.034 68.9370   1
   0   3  -6 714.157 68.9071   1
  -3   3  -6 744.007 68.9158   1
   3  -3  -6 646.919 68.8919   1
  -3   0  -6 720.488 68.9603   1
   3   0   6 685.704 68.9064   1
   0   3   6 743.679 68.9618   1
   3  -3   6 774.620 68.9247   1
  -3   3   6 668.594 68.8856   1
   3  -3  -6 761.916 68.9929   1
  -3   3   6 658.702 68.9410   1
  -3   0   6 712.405 68.9623   1
   0   3  -6 730.649 68.9007   1
  -3   3  -6 747.884 68.8786   1
   3  -3   6 696.247 68.8823   1
   0   3   6 692.488 68.9422   1
   0  -3  -6 755.350 68.9689   1
   0  -3  -6 675.739 68.9171   1
   3   0   6 749.895 68.9734   1
  -2  -2  -6 51.7319 5.36197   1
  -4   2   6 56.8430 5.43201   1
  -2   4  -6 51.3659 5.37360   1
  -4   2  -6 57.4411 5.42058   1
   2   2  -6 56.7836 5.49804   1
   4  -2  -6 56.7852 5.44028   1
   4  -2  -6 55.1802 5.38752   1
   4  -2   6 53.5919 5.41283   1
   4  -2   6 52.0987 5.36035   1
  -2   4  -6 50.2191 5.41595   1
  -2  -2   6 63.0600 5.37891   1
  -4   2  -6 52.2302 5.35363   1
  -4   2   6 55.7937 5.38236   1
   2   2  -6 51.6459 5.40774   1
  -2   4   6 60.1899 5.44665   1
   4  -1   6 1347.71 134.451   1
   3  -4   6 1253.67 134.366   1
   3  -4   6 1510.67 134.366   1
   4  -3  -6 1373.22 134.396   1
  -4   3  -6 1403.39 134.353   1
  -4   3  -6 1379.80 134.399   1
  -1   4  -6 1310.45 134.344   1
   1   3   6 1552.20 134.588   1
   1  -4  -6 1503.12 134.514   1
  -3   4   6 1209.30 134.387   1
  -1  -3   6 1424.04 134.357   1
   1   3   6 1136.85 134.408   1
  -3   4   6 1443.09 134.455   1
   4  -1   6 1413.21 134.407   1
   4  -3  -6 1226.23 134.424   1
  -1  -3   6 1355.26 134.396   1
  -4   1   6 1301.37 134.444   1
  -4   1   6 1374.49 134.412   1
  -3  -1  -6 1320.81 134.436   1
   1  -4  -6 1625.89 134.505   1
  -3  -1  -6 1353.59 134.392   1
  -1   4   6 1742.76 134.533   1
   4  -1  -6 1328.33 134.450   1
   3  -4  -6 1395.91 134.510   1
  -1   4   6 1494.84 134.479   1
   4  -3   6 1381.96 134.402   1
  -1  -3  -6 1519.55 134.393   1
   4  -1  -6 1392.32 134.415   1
   1   3  -6 1423.41 134.394   1
  -4   3   6 1363.58 134.420   1
  -3   4  -6 1417.96 134.354   1
  -3   4  -6 1330.81 134.366   1
  -3  -1   6 1386.01 134.456   1
   1   3  -6 1488.51 134.365   1
  -4   3   6 1485.68 134.405   1
  -1  -3  -6 1428.16 134.429   1
  -4   1  -6 1367.29 134.449   1
   3   1   6 1398.49 134.406   1
   3   1   6 1358.65 134.445   1
   3  -4  -6 1435.47 134.510   1
   4  -3   6 1430.76 134.362   1
  -4   1  -6 1362.67 134.391   1
   4  -4  -6 2532.94 233.589   1
   0  -4  -6 2535.22 233.546   1
  -4   0  -6 2423.76 233.626   1
  -4   0   6 1995.02 233.557   1
   0   4   6 2274.22 233.511   1
   4   0   6 2459.93 233.570   1
   4  -4  -6 2861.60 233.583   1
   4  -4   6 2544.01 233.462   1
   4  -4   6 2645.86 233.600   1
  -4   4   6 2495.14 233.549   1
   0   4  -6 2371.31 233.479   1
  -4   4  -6 2411.36 233.548   1
  -4   0   6 2416.34 233.574   1
  -4   4   6 2876.49 233.563   1
  -4   0  -6 2347.00 233.548   1
   0  -4   6 1964.56 233.456   1
   0   4  -6 2418.19 233.448   1
   0  -4  -6 2041.44 233.462   1
   0  -4   6 2294.20 233.451   1
   4   0   6 2510.82 233.652   1
   4   0  -6 2220.43 233.588   1
   4   0  -6 2513.25 233.581   1
  -4   4  -6 2554.77 233.453   1
   0   4   6 2644.95 233.571   1
  -2   5  -6 715.710 104.885   1
  -2  -3   6 1173.04 104.974   1
   2   3   6 1049.33 104.970   1
   5  -3  -6 1132.62 105.021   1
   3   2  -6 1114.04 105.045   1
  -5   3  -6 1155.14 105.030   1
   5  -2   6 1061.10 105.045   1
  -5   3  -6 1122.36 104.964   1
   3   2  -6 1098.42 104.984   1
  -2  -3   6 1203.71 105.043   1
  -5   2   6 1099.32 105.010   1
   2   3   6 1128.03 105.035   1
   2  -5  -6 959.672 105.027   1
  -2   5  -6 948.952 104.902   1
   5  -2   6 1239.62 105.018   1
  -2   5  -6 957.924 104.905   1
  -3   5   6 1154.49 105.051   1
   5  -3  -6 940.552 105.025   1
  -3   5  -6 1216.10 104.942   1
  -3  -2   6 1071.73 104.981   1
   5  -3   6 1097.12 104.967   1
  -5   2  -6 1272.39 105.012   1
  -3   5  -6 1140.56 104.914   1
  -5   2  -6 1169.46 105.069   1
  -2  -3  -6 1114.29 104.975   1
   2   3  -6 1255.25 105.127   1
  -2   5   6 1036.47 105.023   1
  -2  -3  -6 1111.96 105.026   1
  -3  -2   6 1054.61 105.050   1
   3  -5  -6 724.102 105.034   1
  -5   3   6 1084.09 105.053   1
   2   3  -6 1125.91 105.091   1
   3  -5  -6 1228.11 105.339   1
   3   2   6 1186.40 105.070   1
   5  -2  -6 1054.42 105.002   1
   5  -3   6 1114.89 105.029   1
  -5   3   6 1104.25 105.000   1
  -1   5  -6 472.701 44.9794   1
   1  -5  -6 436.229 45.0262   1
  -5   4  -6 521.379 45.0475   1
   5  -4  -6 411.509 45.0555   1
   1   4   6 481.491 45.0644   1
  -4   5   6 464.422 45.0355   1
  -5   4  -6 469.586 44.9803   1
   4  -5   6 441.677 44.9838   1
   1  -5  -6 453.814 45.0583   1
  -1  -4   6 481.666 44.9929   1
  -1  -4   6 539.256 45.0553   1
   1   4   6 409.171 45.0062   1
  -4   5   6 452.518 45.0284   1
   4   1  -6 474.574 45.0438   1
   5  -4  -6 440.190 45.0185   1
  -4   5  -6 504.733 44.9877   1
  -5   4   6 429.435 45.0571   1
  -1  -4  -6 496.970 45.0547   1
  -5   4   6 472.922 45.0284   1
  -4   5  -6 408.741 44.9542   1
  -1  -4  -6 484.143 45.0033   1
  -1   5   6 500.767 45.1741   1
   5  -4   6 471.210 44.9845   1
   5  -4   6 504.963 45.0477   1
  -1   5   6 469.692 45.0664   1
  -5   5   6 874.838 83.5377   1
  -5   5  -6 931.324 83.4858   1
   0   5   6 924.440 83.5663   1
   0   5   6 864.644 83.5533   1
   0  -5  -6 967.473 83.5723   1
   0  -5  -6 809.773 83.5151   1
   0   5  -6 1016.57 83.5811   1
   5  -5   6 658.890 83.4995   1
   0   5  -6 695.658 83.4902   1
  -5   5  -6 976.188 83.5381   1
  -5   5   6 839.240 83.5764   1
   0   0  -7 4.93483 0.65801   1
   0   0   7 3.41896 0.54369   1
  -1   0  -7 8.68965 0.89770   1
  -1   0  -7 8.58508 0.84043   1
  -1   1  -7 8.01564 0.87100   1
   0   1   7 4.87817 0.81977   1
   1   0   7 6.04824 0.80896   1
   1   1  -7 392.727 38.4480   1
  -2   1   7 403.059 38.5537   1
   1   1   7 375.351 38.4512   1
  -1  -1  -7 359.313 38.4239   1
  -1   2   7 485.614 38.5631   1
   2  -1  -7 330.474 38.4423   1
   1   1   7 376.859 38.5272   1
   1   1  -7 394.617 38.5318   1
  -2   1   7 398.775 38.4410   1
   2  -1  -7 348.184 38.5873   1
  -1   2   7 485.977 38.5006   1
  -2   1  -7 424.893 38.5139   1
  -2   1  -7 422.323 38.4324   1
  -1  -1  -7 388.048 38.5178   1
  -1  -1   7 414.036 38.5441   1
  -1  -1   7 391.910 38.4355   1
  -2   2  -7 481.386 40.9877   1
  -2   2  -7 434.871 41.0303   1
   0   2  -7 456.517 41.0336   1
  -2   0  -7 436.445 41.0072   1
   0   2   7 352.762 41.0425   1
  -2   0   7 458.633 41.0281   1
   0  -2   7 407.516 41.0636   1
   0  -2   7 455.922 41.0097   1
  -2   0   7 513.995 40.9647   1
   0   2  -7 456.555 41.0879   1
   0   2   7 384.383 41.0226   1
   2  -2  -7 353.433 41.0788   1
  -2   2   7 380.519 40.9510   1
  -2   0  -7 442.072 40.9309   1
  -2   2   7 368.742 41.0452   1
  -2  -1  -7 5.08599 0.56688   1
   1   2   7 5.00700 0.58246   1
   3  -1   7 4.86518 0.75569   1
  -2   3   7 4.13737 0.66476   1
  -2   3   7 5.80614 0.68809   1
   3  -2  -7 5.05301 0.65875   1
  -3   2  -7 6.74701 0.65388   1
  -3   1   7 6.90457 0.66239   1
  -2  -1  -7 4.59994 0.62385   1
  -1   3  -7 3.40013 0.62271   1
   3  -2  -7 5.22685 0.59702   1
   1   2   7 5.18357 0.64496   1
  -1  -2   7 4.74309 0.57549   1
   3  -1   7 5.34176 0.61225   1
  -3   1  -7 5.42020 0.57170   1
   3  -2   7 6.04803 0.64834   1
  -3   2   7 5.14485 0.58173   1
  -1  -2  -7 5.11587 0.57452   1
   2  -3  -7 3.21291 0.68326   1
  -2  -1   7 5.94374 0.63014   1
  -1   3   7 5.30873 0.67668   1
  -2   3  -7 4.66074 0.63787   1
   1   2  -7 6.19938 0.65698   1
  -3   1  -7 4.91793 0.62211   1
   2   1   7 3.38118 0.97744   1
   1   2  -7 4.41605 0.57933   1
   3  -3   7 331.774 29.7754   1
   3   0  -7 329.396 29.7348   1
  -3   0   7 307.669 29.7744   1
   3  -3  -7 309.906 29.8332   1
   3  -3  -7 288.796 29.7386   1
  -3   0  -7 332.044 29.7268   1
   3   0   7 334.741 29.7737   1
  -3   0   7 344.762 29.7437   1
   3   0  -7 321.981 29.8022   1
  -3   0  -7 307.787 29.7823   1
   0   3  -7 319.594 29.7639   1
   0   3   7 342.484 29.8620   1
   3  -3   7 360.850 29.8034   1
   0   3   7 280.469 29.7717   1
   0  -3   7 230.661 29.7423   1
  -3   3   7 291.843 29.7198   1
   0   3  -7 342.294 29.8204   1
  -3   3  -7 308.953 29.7424   1
  -3   3  -7 297.560 29.6898   1
   0  -3  -7 326.376 29.8558   1
   0  -3   7 309.459 29.7647   1
   0  -3  -7 259.163 29.7710   1
   3   0   7 255.151 29.7826   1
  -3   3   7 272.330 29.7813   1
  -2   4  -7 4.09031 0.54735   1
  -4   2   7 4.94880 0.60246   1
  -2  -2  -7 4.33587 0.53504   1
  -2  -2   7 6.11629 0.61709   1
  -4   2  -7 3.84555 0.57191   1
  -2   4  -7 5.23040 1.35446   1
   4  -2  -7 3.95697 0.59061   1
   4  -2   7 4.30011 0.58456   1
  -1  -3   7 7.27845 0.72707   1
   1  -4  -7 7.28984 0.98482   1
   3   1  -7 7.70353 0.75770   1
   4  -1   7 6.61008 0.73353   1
  -3  -1  -7 6.61861 0.73052   1
  -1   4  -7 6.61831 0.99962   1
   3   1  -7 7.98021 0.79683   1
   1   3   7 4.58333 0.72114   1
  -4   1   7 6.21862 0.73973   1
   4  -1   7 8.07925 0.81944   1
  -3   4   7 5.26734 0.80797   1
   4  -3  -7 5.96985 0.79840   1
   4  -3  -7 7.01723 0.73278   1
  -1  -3   7 6.13240 0.75340   1
   1   3   7 5.77815 0.78981   1
  -4   3  -7 5.94910 0.75416   1
  -3  -1  -7 7.73693 0.81245   1
  -4   3  -7 6.04690 0.70316   1
  -3  -1   7 7.32968 0.79435   1
  -4   3   7 6.11429 0.77075   1
  -4   3   7 7.23939 0.73128   1
  -4   1  -7 8.18997 0.81725   1
  -3   4  -7 7.00017 0.74807   1
  -1  -3  -7 5.19387 0.71825   1
   3   1   7 8.99022 0.92266   1
  -4   1  -7 6.55719 0.72922   1
  -1   4   7 6.85846 0.86646   1
   3  -4  -7 5.45492 0.83060   1
   4  -3   7 6.39096 0.71245   1
   3  -4  -7 4.82509 0.82283   1
   1  -4   7 5.85937 0.76796   1
  -1  -3  -7 5.84383 0.78013   1
   4  -1  -7 6.42032 0.74973   1
   4  -3   7 6.01516 0.76146   1
   3   1   7 6.81018 0.78477   1
   0  -4  -7 281.759 31.4288   1
   4   0  -7 348.401 31.4337   1
   0   4   7 344.356 31.4767   1
  -4   0  -7 343.527 31.5015   1
   4  -4   7 311.667 31.5795   1
  -4   4   7 303.479 31.3915   1
   0  -4   7 290.068 31.3872   1
  -4   4  -7 346.608 31.4210   1
  -4   4  -7 326.973 31.3640   1
   4  -4  -7 346.183 31.5009   1
   4   0   7 347.963 31.5088   1
  -4   0   7 343.500 31.4313   1
  -4   4   7 336.042 31.4706   1
   0  -4   7 317.787 31.3986   1
   0  -4  -7 341.215 31.4773   1
   4  -4  -7 285.940 31.3850   1
   2  -5  -7 4.75478 0.96800   1
  -2   5  -7 6.44274 0.69426   1
  -5   3  -7 5.96347 0.65908   1
   5  -2   7 5.25856 0.73142   1
  -2  -3   7 6.40951 0.67398   1
   3   2  -7 6.03026 0.68972   1
   2   3   7 5.39771 0.84020   1
  -3   5   7 6.04895 0.70846   1
  -2  -3   7 6.75773 0.73517   1
  -2   5  -7 4.99616 0.68116   1
   2   3  -7 6.65926 0.72757   1
   3  -5  -7 6.10974 1.96424   1
   5  -3   7 5.73708 0.66324   1
  -5   2  -7 6.53170 0.75172   1
   2   3  -7 6.17577 0.66732   1
   3  -5  -7 5.43275 1.51715   1
  -3   5  -7 6.10264 0.65946   1
  -2   5   7 5.29177 0.78124   1
  -2  -3  -7 6.35070 0.74112   1
  -3  -2   7 5.90318 0.68032   1
  -2   5   7 5.50049 0.78721   1
  -5   3   7 5.30257 0.67402   1
  -4   5   7 196.545 18.1336   1
   1   4   7 195.621 18.2488   1
   1  -5  -7 174.336 18.1178   1
   1   4   7 185.422 18.2566   1
  -1  -4   7 197.022 18.0386   1
  -5   4  -7 177.095 18.0135   1
  -4   5   7 151.399 18.0616   1
  -5   4  -7 208.863 18.1041   1
  -1  -4   7 184.256 18.0851   1
   5  -4  -7 163.942 18.0420   1
  -4   5  -7 173.648 18.0429   1
   1   4  -7 189.639 18.0831   1
  -5   4   7 171.773 18.0391   1
  -1   5   7 189.915 18.1610   1
  -1  -4  -7 198.134 18.1240   1
  -1   5   7 206.786 18.2214   1
  -4   5  -7 205.137 18.1600   1
   1   4  -7 189.911 18.0315   1
  -1  -4  -7 191.386 18.0521   1
   0   0   8 8841.22 812.577   1
   0   0  -8 7180.92 812.500   1
   0   0  -8 9556.94 812.776   1
   0   0   8 8268.31 812.555   1
  -1   0  -8 17.5804 2.10997   1
  -1   0  -8 20.6098 2.21272   1
   1   0   8 17.1315 2.12943   1
   0  -1   8 25.8188 2.31768   1
  -1   1   8 16.5989 2.19598   1
  -1   1  -8 24.8451 2.17640   1
   0   1   8 20.2484 2.16545   1
  -1   1  -8 22.5550 2.24117   1
   1  -1  -8 18.6889 2.65579   1
  -1   0   8 20.5584 2.11272   1
   1  -1  -8 21.3897 2.51441   1
  -1   1   8 21.4624 2.15787   1
  -2   1   8 2829.72 254.652   1
  -2   1  -8 2607.03 254.696   1
  -1  -1  -8 2546.35 254.638   1
   2  -1   8 2651.59 254.632   1
  -2   1  -8 2488.10 254.584   1
   2  -1  -8 2572.67 254.625   1
   2  -1  -8 2369.45 254.755   1
  -1  -1   8 2752.30 254.793   1
  -1  -1   8 2709.12 254.760   1
  -1   2   8 3264.20 254.761   1
   1   1   8 2601.86 254.658   1
   1   1   8 2641.11 254.775   1
  -1  -1  -8 2546.41 254.734   1
  -2   1   8 2534.25 254.762   1
  -2   0   8 177.039 16.2204   1
   0  -2   8 143.343 16.3799   1
   2  -2   8 210.977 16.3811   1
   0   2   8 141.531 16.3722   1
   0  -2   8 200.228 16.3391   1
  -2   0   8 191.095 16.3743   1
   2   0   8 166.620 16.2366   1
   2   0   8 186.960 16.3594   1
   2   0  -8 179.539 16.3656   1
   2  -2   8 167.424 16.3524   1
   2   0  -8 184.155 16.2325   1
   0   2  -8 137.177 16.4568   1
  -2   0  -8 182.747 16.2234   1
  -2   2  -8 166.882 16.2747   1
   0   2  -8 148.348 16.3614   1
  -2   0  -8 178.087 16.3354   1
  -2   2   8 163.842 16.2715   1
  -2   2  -8 186.550 16.3357   1
   2  -2  -8 178.113 16.3243   1
  -2   2   8 111.153 16.3114   1
   2  -2  -8 127.121 16.3928   1
   2   1  -8 17.0921 1.95687   1
   3  -1   8 12.8370 1.97547   1
   3  -2  -8 22.3669 1.88343   1
  -3   1   8 15.0637 1.95029   1
   2  -3   8 20.6753 1.99303   1
  -2  -1  -8 14.2637 1.86083   1
   1   2   8 21.7025 2.03096   1
  -3   1   8 16.0616 1.87887   1
  -3   2  -8 20.7640 1.87214   1
  -2  -1  -8 21.5508 1.99645   1
  -1  -2   8 21.4718 2.00359   1
   3  -1  -8 18.9083 1.90883   1
  -3   1  -8 17.4589 1.86977   1
  -1   3   8 22.6387 2.02315   1
   2   1   8 14.6500 1.96136   1
  -1   3   8 22.4256 2.06576   1
  -2  -1   8 16.6343 1.95457   1
  -3   2   8 21.5560 2.01782   1
  -2   3  -8 21.9992 1.98328   1
  -3   2   8 22.3562 1.88743   1
   2   1   8 13.1297 1.86503   1
   3  -1  -8 11.7586 1.92350   1
   1  -3   8 20.1571 1.94548   1
   0   3   8 2407.68 225.793   1
  -3   3   8 2171.86 225.735   1
  -3   3  -8 2102.49 225.554   1
   0  -3   8 2393.23 225.634   1
   0  -3   8 2310.14 225.672   1
   3  -3   8 2067.74 225.609   1
   3  -3  -8 2343.64 225.805   1
   3  -3  -8 2149.24 225.629   1
  -3   3   8 2331.65 225.644   1
   3  -3   8 2290.16 225.738   1
   0  -3  -8 2534.04 225.975   1
  -3   0  -8 2386.68 225.727   1
   3   0  -8 2417.67 225.732   1
  -3   0   8 2261.88 225.693   1
   3   0  -8 2519.18 225.660   1
  -3   3  -8 2456.43 225.655   1
  -3   0   8 2521.60 225.654   1
  -3   0  -8 2612.79 225.669   1
   2   2   8 3584.82 320.173   1
  -2   4  -8 3245.50 319.909   1
   4  -2  -8 3525.29 319.989   1
  -2  -2  -8 3178.77 320.209   1
  -2  -2   8 3591.26 320.031   1
  -2  -2   8 3081.49 319.882   1
   2   2  -8 3400.99 320.016   1
   2   2  -8 3317.55 319.907   1
   2  -4  -8 2908.05 320.391   1
  -4   2  -8 3751.33 319.972   1
  -4   2  -8 3599.62 320.051   1
  -2   4   8 2609.52 319.968   1
  -4   2   8 3508.96 319.980   1
   3   1  -8 13.4587 1.39794   1
   1  -4  -8 14.4996 1.88094   1
   3  -4   8 12.6018 1.45894   1
   1   3   8 11.0462 1.40070   1
  -4   3  -8 15.4378 1.46694   1
   4  -3  -8 11.5634 1.42146   1
  -3   4   8 11.5137 1.52017   1
  -1  -3   8 15.8334 1.46242   1
  -4   3  -8 14.8509 1.36063   1
   3  -4   8 14.9247 1.42497   1
  -1  -3   8 14.8585 1.37329   1
  -1   4   8 15.6256 1.49611   1
   1  -4   8 14.6556 1.42078   1
  -3   4  -8 9.35909 1.40055   1
  -4   3   8 13.6634 1.40045   1
   1  -4   8 10.4097 1.43301   1
   1   3  -8 17.5806 1.38855   1
   1   3  -8 15.1217 1.45594   1
  -3   4  -8 12.9205 1.41452   1
  -4   1  -8 12.3764 1.45597   1
  -1  -3  -8 8.64989 1.34615   1
   3  -4  -8 11.4493 1.53488   1
   0  -4  -8 79.2172 12.5029   1
   0   4  -8 129.144 12.5434   1
   0   4   8 144.190 12.6556   1
   4  -4   8 145.922 12.5241   1
   4  -4   8 155.032 12.5815   1
  -4   4   8 125.813 12.5168   1
  -4   4  -8 123.133 12.4638   1
   0   4   8 120.692 12.5900   1
   0  -4  -8 138.241 12.6526   1
   0  -4   8 116.511 12.5129   1
  -4   4  -8 152.447 12.5688   1
   0   4  -8 121.284 12.5355   1
   4  -4  -8 131.599 12.5449   1
   0  -4   8 124.103 12.5270   1
   0   0   9 1398.05 119.316   1
   0   0   9 1082.91 119.274   1
   0  -1  -9 274.150 24.5795   1
  -1   1   9 276.990 24.2391   1
   0  -1   9 274.565 24.3632   1
   1  -1  -9 262.316 24.3696   1
  -1   1  -9 273.226 24.5918   1
  -1   1  -9 250.942 24.4580   1
   1  -1  -9 261.975 24.2590   1
   0  -1  -9 216.844 24.3210   1
   0   1   9 215.276 24.1811   1
   1  -1   9 224.034 24.1942   1
   0   1   9 277.961 24.2918   1
  -1   1   9 193.713 24.2447   1
  -2   1   9 88.9574 8.69139   1
  -2   1  -9 90.0590 8.80689   1
   2  -1  -9 83.9914 8.90895   1
  -2   1   9 78.9887 8.85399   1
   2  -1   9 99.7676 8.74227   1
   1   1  -9 79.0462 8.86831   1
   1   1  -9 102.862 8.74891   1
   2  -1  -9 98.8773 8.73285   1
   1   1   9 71.3703 8.81408   1
  -1  -1   9 83.8438 8.88574   1
   1   1   9 101.835 8.77224   1
  -2   1  -9 91.1619 8.71767   1
  -2   2  -9 11.2445 1.62223   1
  -2   0   9 16.6050 1.59412   1
  -2   2  -9 15.3457 1.72934   1
   2  -2  -9 15.8247 1.69768   1
   0  -2  -9 16.0865 2.59225   1
  -2   0   9 16.1366 1.75090   1
  -2   0  -9 16.7959 1.73629   1
  -2   0  -9 16.7959 1.73629   1
   0   2   9 14.7425 1.79400   1
   2  -2   9 15.4060 1.66968   1
   2  -2   9 11.9808 1.69845   1
  -2   2   9 14.9351 1.66154   1
   0  -2  -9 14.2564 2.03431   1
   2   0  -9 16.2533 1.77165   1
   2   0  -9 17.0799 1.61787   1
  -2   2   9 14.2793 1.76757   1
   2   0   9 18.1053 1.76381   1
  -3   2  -9 97.4183 10.2152   1
   3  -1   9 114.180 10.3906   1
  -2   3   9 69.7826 10.3196   1
   2   1  -9 93.7136 10.3684   1
  -3   2  -9 113.392 10.3557   1
  -1  -2   9 116.266 10.2720   1
  -2  -1  -9 105.185 10.3726   1
   3  -2  -9 111.079 10.2782   1
   1   2   9 110.022 10.4595   1
  -3   1   9 112.388 10.2482   1
  -1  -2   9 107.148 10.4008   1
   2   1  -9 110.828 10.2372   1
   3  -2   9 112.785 10.2642   1
  -2   3  -9 110.112 10.5037   1
  -3   2   9 105.411 10.2482   1
   2   1   9 112.134 10.4120   1
   3  -1  -9 118.053 10.2608   1
  -3   1  -9 111.045 10.3595   1
   1   2  -9 106.997 10.3937   1
  -1  -2  -9 105.367 10.4734   1
   1   2  -9 107.379 10.2650   1
   3  -2   9 113.189 10.3752   1
   1  -3   9 112.063 10.4195   1
   2  -3  -9 85.2900 10.4200   1
  -2  -1   9 76.5416 10.3303   1
  -3   3  -9 83.6505 8.48394   1
   0  -3   9 105.053 8.55643   1
   3  -3  -9 59.1904 8.55128   1
   3  -3   9 90.6715 8.50168   1
   0  -3   9 87.9803 8.60639   1
  -3   3   9 72.8762 8.45830   1
   3  -3   9 89.2981 8.54207   1
   0   3  -9 83.7430 8.57936   1
   0   3  -9 110.503 8.58763   1
  -3   3  -9 94.4367 8.55601   1
   0   3   9 77.0352 8.64441   1
  -2   4   9 922.774 77.7854   1
   2   2  -9 642.875 77.6259   1
  -2   4  -9 842.448 77.7879   1
   2  -4   9 875.723 77.8007   1
  -2  -2   9 587.940 77.6077   1
   2  -4  -9 973.561 78.0095   1
  -3   4   9 89.9863 8.54344   1
  -1  -3   9 92.2907 8.55030   1
   3  -4   9 70.7148 8.46798   1
  -1  -3   9 87.9168 8.45448   1
  -4   3  -9 98.9279 8.56922   1
  -1   4  -9 62.6955 8.49322   1
   4  -3   9 104.285 8.58952   1
  -1   4   9 76.0003 8.63154   1
   1  -4   9 106.628 8.47576   1
   1   3  -9 88.0946 8.55315   1
   1   3  -9 77.2758 8.44798   1
   0   0  10 50.6879 4.60872   1
   0   0 -10 52.2873 4.66164   1
   0   0 -10 33.7945 4.56379   1
  -1   1 -10 1460.43 132.279   1
   0   1 -10 1918.05 132.388   1
  -1   0  10 921.082 131.919   1
  -1   1  10 1382.20 132.027   1
   0  -1  10 1496.84 132.199   1
   0   1 -10 1647.07 132.111   1
  -1   0 -10 1001.01 132.332   1
   0   1  10 1510.14 132.106   1
   1  -1 -10 1417.04 132.075   1
   1   0  10 956.955 132.018   1
  -1   1 -10 1356.16 132.102   1
   1   0 -10 1148.51 132.010   1
   0  -1 -10 1781.46 132.268   1
   1  -1  10 1223.49 131.975   1
  -1   2 -10 652.154 68.3599   1
  -1   2  10 682.205 68.3736   1
   1  -2 -10 818.782 68.5197   1
  -1   2 -10 746.828 68.4774   1
   1  -2  10 771.616 68.4261   1
   1  -2  10 587.361 68.3141   1
   0   2 -10 1605.93 109.957   1
   0  -2  10 993.486 109.609   1
   2  -2  10 814.644 109.475   1
  -1  -2  10 578.005 62.9668   1
   1   2 -10 589.464 62.9872   1
  -2   3 -10 642.450 63.0580   1
   1  -3  10 880.911 63.2560   1
   3  -2  10 581.302 63.0892   1
  -3   3 -10 231.692 20.7286   1
   0  -3  10 194.255 20.5048   1
   0   3 -10 200.198 20.4913   1
   3  -3  10 214.312 20.4296   1
   0   0   0    0.00    0.00   0

 _exptl_absorpt_process_details
)
 SADABS 2016/2: Krause, L., Herbst-Irmer, R., Sheldrick G.M. & Stalke D.,
 J. Appl. Cryst. 48 (2015) 3-10
)
 _exptl_absorpt_correction_type   multi-scan
 _exptl_absorpt_correction_T_max  0.7439
 _exptl_absorpt_correction_T_min  0.1727
 _exptl_special_details
)
 The following wavelength and cell were deduced by SADABS from the
 direction cosines etc. They are given here for emergency use only:
 CELL 0.42755    5.507    5.506    9.294   90.001   89.989  119.998
)

;
_shelx_hkl_checksum   96809

